field watch_flits value 56549
BEGIN Configuration File: examples/winoc
// $Id$

// Copyright (c) 2007-2015, Trustees of The Leland Stanford Junior University
// All rights reserved.
//
// Redistribution and use in source and binary forms, with or without
// modification, are permitted provided that the following conditions are met:
//
// Redistributions of source code must retain the above copyright notice, this
// list of conditions and the following disclaimer.
// Redistributions in binary form must reproduce the above copyright notice,
// this list of conditions and the following disclaimer in the documentation
// and/or other materials provided with the distribution.
//
// THIS SOFTWARE IS PROVIDED BY THE COPYRIGHT HOLDERS AND CONTRIBUTORS "AS IS"
// AND ANY EXPRESS OR IMPLIED WARRANTIES, INCLUDING, BUT NOT LIMITED TO, THE
// IMPLIED WARRANTIES OF MERCHANTABILITY AND FITNESS FOR A PARTICULAR PURPOSE
// ARE DISCLAIMED. IN NO EVENT SHALL THE COPYRIGHT OWNER OR CONTRIBUTORS BE
// LIABLE FOR ANY DIRECT, INDIRECT, INCIDENTAL, SPECIAL, EXEMPLARY, OR
// CONSEQUENTIAL DAMAGES (INCLUDING, BUT NOT LIMITED TO, PROCUREMENT OF
// SUBSTITUTE GOODS OR SERVICES; LOSS OF USE, DATA, OR PROFITS; OR BUSINESS
// INTERRUPTION) HOWEVER CAUSED AND ON ANY THEORY OF LIABILITY, WHETHER IN
// CONTRACT, STRICT LIABILITY, OR TORT (INCLUDING NEGLIGENCE OR OTHERWISE)
// ARISING IN ANY WAY OUT OF THE USE OF THIS SOFTWARE, EVEN IF ADVISED OF THE
// POSSIBILITY OF SUCH DAMAGE.

//8X8 mesh with 20 flits per packet under injection mode
//injection rate here is packet per cycle, NOT flit per cycle

// Topology

topology = wmesh;
k = 8;
n = 2;
m = 4; 
// Routing
routing_function = dor;

// Flow control
num_vcs     = 5;
vc_buf_size = 3;
received_queue_size = 64;


wait_for_tail_credit = 1;



// Router architecture
vc_allocator = islip;
sw_allocator = islip;
alloc_iters  = 1;

credit_delay   = 1;
routing_delay  = 2;
vc_alloc_delay = 1;
sw_alloc_delay = 1;

input_speedup     = 2;
output_speedup    = 1;
internal_speedup  = 1.0;


// Traffic
traffic = uniform;
packet_size = 1;


// Simulation
sim_type = latency;

injection_rate = 0.025;

mcast_switch = 1;

//mcast_injection_rate = 0.03; //deprecated

mcast_percent = 10;

num_mcast_dests = 12;

//latency_thres = 20000.0;

watch_flits = 56549;
watch_out = ./watch_folder/flit_56549.txt;

END Configuration File: examples/winoc
Hub locations
9  13  41  45  


Pid 19 Destinations are: 
30 54 9 18 17 5 2 37 57 62 51 47 num dests 12 simtime 10 source 31


Pid 34 Destinations are: 
3 33 13 19 22 58 4 21 34 60 41 25 num dests 12 simtime 20 source 36


Pid 56 Destinations are: 
11 7 40 51 6 1 26 39 61 18 29 50 num dests 12 simtime 30 source 42


Pid 98 Destinations are: 
5 60 53 42 25 3 58 46 23 20 0 24 num dests 12 simtime 40 source 52


Pid 127 Destinations are: 
18 51 22 15 29 20 4 26 36 19 48 63 num dests 12 simtime 50 source 45


Pid 156 Destinations are: 
13 41 49 3 52 11 5 58 2 12 53 35 num dests 12 simtime 60 source 38


Pid 188 Destinations are: 
22 30 45 47 55 46 56 34 15 21 62 11 num dests 12 simtime 70 source 19


Pid 224 Destinations are: 
57 28 32 56 20 41 22 62 7 23 1 48 num dests 12 simtime 80 source 5


Pid 292 Destinations are: 
20 8 43 51 57 14 27 4 6 49 44 55 num dests 12 simtime 100 source 25


Pid 325 Destinations are: 
21 7 60 40 22 16 58 43 51 14 36 20 num dests 12 simtime 110 source 48


Pid 363 Destinations are: 
44 0 53 27 39 32 2 47 3 34 1 26 num dests 12 simtime 120 source 28


Pid 393 Destinations are: 
7 4 29 26 12 21 1 25 59 43 15 17 num dests 12 simtime 130 source 42


Pid 431 Destinations are: 
4 10 14 34 30 53 51 15 54 36 9 18 num dests 12 simtime 140 source 3


Pid 466 Destinations are: 
28 10 7 20 52 13 6 23 53 55 8 51 num dests 12 simtime 150 source 42


Pid 499 Destinations are: 
60 43 19 26 57 45 16 35 5 34 8 21 num dests 12 simtime 160 source 30


Pid 527 Destinations are: 
32 15 20 63 3 14 23 37 35 51 18 1 num dests 12 simtime 170 source 13


Pid 562 Destinations are: 
57 7 3 43 26 8 50 62 6 61 52 41 num dests 12 simtime 180 source 31


Pid 605 Destinations are: 
51 52 49 57 4 2 10 1 9 40 5 43 num dests 12 simtime 190 source 23


Pid 636 Destinations are: 
30 14 0 58 59 54 39 17 52 2 42 43 num dests 12 simtime 200 source 47


Pid 705 Destinations are: 
48 23 28 54 22 11 62 17 52 34 56 1 num dests 12 simtime 220 source 47


Pid 764 Destinations are: 
25 55 37 40 35 3 60 59 54 31 19 18 num dests 12 simtime 240 source 33


Pid 795 Destinations are: 
2 12 42 6 17 41 49 16 31 11 51 13 num dests 12 simtime 250 source 20


Pid 829 Destinations are: 
53 59 46 36 24 27 26 19 2 54 38 6 num dests 12 simtime 260 source 3


Pid 873 Destinations are: 
26 55 37 40 35 4 60 59 54 32 20 19 num dests 12 simtime 270 source 3


Pid 904 Destinations are: 
5 63 15 6 29 62 54 32 21 41 17 45 num dests 12 simtime 280 source 18


Pid 932 Destinations are: 
49 9 35 2 20 41 30 4 16 61 45 55 num dests 12 simtime 290 source 6


Pid 961 Destinations are: 
21 34 8 30 40 0 55 37 28 49 63 43 num dests 12 simtime 300 source 19


Pid 1025 Destinations are: 
57 11 58 10 46 9 32 47 41 60 16 0 num dests 12 simtime 320 source 5


Pid 1060 Destinations are: 
60 10 18 54 45 58 63 36 22 27 30 43 num dests 12 simtime 330 source 49


Pid 1082 Destinations are: 
55 36 38 25 31 40 44 48 54 57 29 27 num dests 12 simtime 340 source 7


Pid 1112 Destinations are: 
55 18 39 29 38 41 40 58 13 21 23 30 num dests 12 simtime 350 source 14


Pid 1146 Destinations are: 
2 19 60 25 11 7 8 22 50 59 48 54 num dests 12 simtime 360 source 58


Pid 1188 Destinations are: 
63 59 45 21 35 38 40 27 13 26 39 50 num dests 12 simtime 370 source 0


Pid 1266 Destinations are: 
43 4 9 33 15 34 26 21 59 57 10 32 num dests 12 simtime 390 source 61


Pid 1359 Destinations are: 
0 44 12 41 58 15 13 1 24 36 59 4 num dests 12 simtime 420 source 40


Pid 1393 Destinations are: 
26 34 51 6 59 13 2 40 39 36 29 25 num dests 12 simtime 430 source 32


Pid 1419 Destinations are: 
44 23 60 1 14 16 49 39 5 24 43 13 num dests 12 simtime 440 source 40


Pid 1491 Destinations are: 
39 45 47 8 55 27 50 10 4 61 16 30 num dests 12 simtime 460 source 14


Pid 1573 Destinations are: 
6 21 32 36 54 10 31 38 47 5 15 13 num dests 12 simtime 490 source 59


Pid 1594 Destinations are: 
41 49 42 15 53 48 31 11 43 38 17 22 num dests 12 simtime 500 source 2


Pid 1631 Destinations are: 
15 41 24 46 21 1 52 29 42 16 12 38 num dests 12 simtime 510 source 20


Pid 1670 Destinations are: 
35 4 7 52 8 6 5 16 45 59 26 10 num dests 12 simtime 520 source 42


Pid 1737 Destinations are: 
30 45 55 16 40 29 31 42 48 10 14 2 num dests 12 simtime 540 source 12


Pid 1763 Destinations are: 
27 41 56 61 54 18 10 12 11 29 1 33 num dests 12 simtime 550 source 15


Pid 1801 Destinations are: 
11 14 20 26 34 37 62 4 35 38 18 19 num dests 12 simtime 560 source 51


Pid 1873 Destinations are: 
23 2 36 41 40 9 22 18 47 45 31 60 num dests 12 simtime 580 source 48


Pid 1909 Destinations are: 
14 28 6 10 57 7 22 52 63 51 46 4 num dests 12 simtime 590 source 19


Pid 1950 Destinations are: 
33 55 63 5 18 46 47 31 29 9 44 20 num dests 12 simtime 600 source 50


Pid 1986 Destinations are: 
23 59 15 35 18 33 47 49 36 57 26 52 num dests 12 simtime 610 source 25


Pid 2022 Destinations are: 
56 8 26 63 27 53 46 44 3 22 20 57 num dests 12 simtime 620 source 18


Pid 2050 Destinations are: 
3 34 6 63 41 49 37 8 54 4 46 28 num dests 12 simtime 630 source 44


Pid 2145 Destinations are: 
57 61 55 41 33 56 37 40 42 19 10 15 num dests 12 simtime 650 source 29


Pid 2175 Destinations are: 
35 12 14 25 39 50 17 26 38 59 10 21 num dests 12 simtime 660 source 58


Pid 2234 Destinations are: 
58 35 56 20 26 38 59 2 11 1 48 42 num dests 12 simtime 680 source 30


Pid 2260 Destinations are: 
36 12 14 25 40 51 17 26 39 59 10 21 num dests 12 simtime 690 source 28


Pid 2298 Destinations are: 
31 37 38 18 13 24 63 52 28 22 30 12 num dests 12 simtime 700 source 36


Pid 2374 Destinations are: 
14 39 7 63 55 36 15 25 21 42 24 30 num dests 12 simtime 720 source 59


Pid 2407 Destinations are: 
13 37 62 17 18 14 46 63 15 29 45 27 num dests 12 simtime 730 source 41


Pid 2439 Destinations are: 
12 43 39 41 27 33 18 52 5 9 56 40 num dests 12 simtime 740 source 58


Pid 2476 Destinations are: 
17 61 43 23 19 0 25 38 13 49 62 6 num dests 12 simtime 750 source 4


Pid 2511 Destinations are: 
51 50 44 35 30 40 58 2 22 57 13 9 num dests 12 simtime 760 source 27


Pid 2546 Destinations are: 
21 41 43 34 7 29 16 48 6 20 26 31 num dests 12 simtime 770 source 56


Pid 2583 Destinations are: 
63 50 44 46 21 18 54 34 56 26 42 62 num dests 12 simtime 780 source 45


Pid 2720 Destinations are: 
41 37 31 19 17 63 22 6 12 32 34 39 num dests 12 simtime 820 source 35


Pid 2757 Destinations are: 
6 22 47 55 26 41 46 49 10 3 7 54 num dests 12 simtime 830 source 19


Pid 2795 Destinations are: 
28 29 37 5 63 42 30 59 10 4 52 7 num dests 12 simtime 840 source 40


Pid 2830 Destinations are: 
49 35 17 63 60 52 43 22 29 38 23 10 num dests 12 simtime 850 source 11


Pid 2862 Destinations are: 
33 55 59 63 35 16 36 61 34 44 6 40 num dests 12 simtime 860 source 60


Pid 2901 Destinations are: 
17 53 10 50 3 42 16 62 58 39 21 41 num dests 12 simtime 870 source 28


Pid 2941 Destinations are: 
40 58 32 7 38 44 34 0 52 36 35 60 num dests 12 simtime 880 source 16


Pid 2975 Destinations are: 
13 32 52 57 33 49 63 21 23 28 34 4 num dests 12 simtime 890 source 22


Pid 3001 Destinations are: 
12 24 35 15 20 58 9 51 43 14 32 48 num dests 12 simtime 900 source 3


Pid 3090 Destinations are: 
34 62 19 14 24 15 54 13 63 58 43 31 num dests 12 simtime 930 source 37


Pid 3116 Destinations are: 
41 58 55 37 61 5 59 1 54 18 36 47 num dests 12 simtime 940 source 42


Pid 3153 Destinations are: 
22 55 51 17 25 4 13 57 3 47 21 46 num dests 12 simtime 950 source 62


Pid 3197 Destinations are: 
26 63 9 13 40 22 50 43 17 24 37 62 num dests 12 simtime 960 source 41


Pid 3268 Destinations are: 
19 26 13 24 22 38 40 18 36 1 15 17 num dests 12 simtime 980 source 5


Pid 3291 Destinations are: 
62 38 10 23 63 50 37 0 7 31 49 53 num dests 12 simtime 990 source 47
Class 0:
Packet latency average = 37.8593
	minimum = 2
	maximum = 327
Network latency average = 37.8593
	minimum = 2
	maximum = 327
Slowest packet = 3256
Flit latency average = 37.8593
	minimum = 2
	maximum = 327
Slowest flit = 3256
Fragmentation average = 0
	minimum = 0
	maximum = 0
Injected packet rate average = 0.0253125
	minimum = 0.012 (at node 43)
	maximum = 0.039 (at node 27)
Accepted packet rate average = 0.0366406
	minimum = 0.027 (at node 25)
	maximum = 0.048 (at node 39)
Injected flit rate average = 0.0253125
	minimum = 0.012 (at node 43)
	maximum = 0.039 (at node 27)
Accepted flit rate average= 0.0366406
	minimum = 0.027 (at node 25)
	maximum = 0.048 (at node 39)
Injected packet length average = 1
Accepted packet length average = 1
Total in-flight flits = 116 (0 measured)
latency change    = 1
throughput change = 1


Pid 3328 Destinations are: 
43 22 54 28 50 53 55 17 20 58 36 16 num dests 12 simtime 1000 source 14


Pid 3363 Destinations are: 
33 15 23 5 16 36 38 29 45 48 11 2 num dests 12 simtime 1010 source 25


Pid 3425 Destinations are: 
14 7 33 39 3 26 37 15 8 56 49 5 num dests 12 simtime 1030 source 13


Pid 3460 Destinations are: 
62 60 47 57 39 22 10 52 49 42 7 59 num dests 12 simtime 1040 source 63


Pid 3495 Destinations are: 
21 4 47 58 44 41 42 23 15 13 56 9 num dests 12 simtime 1050 source 61


Pid 3530 Destinations are: 
54 4 49 33 57 34 18 60 48 47 29 28 num dests 12 simtime 1060 source 10


Pid 3564 Destinations are: 
29 37 6 63 39 51 53 25 17 4 8 20 num dests 12 simtime 1070 source 30


Pid 3603 Destinations are: 
48 12 36 41 54 52 45 25 33 38 27 22 num dests 12 simtime 1080 source 5


Pid 3638 Destinations are: 
13 46 17 50 36 34 19 20 10 1 59 62 num dests 12 simtime 1090 source 29


Pid 3673 Destinations are: 
2 53 46 11 56 43 41 10 34 29 17 27 num dests 12 simtime 1100 source 38


Pid 3712 Destinations are: 
53 27 1 7 3 35 30 16 22 15 60 11 num dests 12 simtime 1110 source 23


Pid 3746 Destinations are: 
49 16 61 17 32 45 13 11 37 63 51 24 num dests 12 simtime 1120 source 57


Pid 3783 Destinations are: 
25 35 55 6 32 17 54 8 41 47 14 62 num dests 12 simtime 1130 source 29


Pid 3821 Destinations are: 
34 5 19 37 28 56 45 21 48 20 49 9 num dests 12 simtime 1140 source 52


Pid 3853 Destinations are: 
52 35 13 49 60 56 23 31 53 6 29 46 num dests 12 simtime 1150 source 26


Pid 3892 Destinations are: 
34 31 42 45 2 46 7 16 23 24 3 50 num dests 12 simtime 1160 source 39


Pid 3927 Destinations are: 
50 7 46 27 15 34 48 22 62 3 51 43 num dests 12 simtime 1170 source 14


Pid 3967 Destinations are: 
53 32 0 61 38 15 52 9 37 4 18 31 num dests 12 simtime 1180 source 62


Pid 4009 Destinations are: 
55 52 14 21 18 42 5 2 25 13 53 45 num dests 12 simtime 1190 source 11


Pid 4043 Destinations are: 
49 31 34 54 7 11 33 41 10 63 56 25 num dests 12 simtime 1200 source 3


Pid 4082 Destinations are: 
55 42 19 17 3 49 47 36 56 10 46 58 num dests 12 simtime 1210 source 39


Pid 4110 Destinations are: 
26 15 58 60 21 7 51 44 46 3 24 47 num dests 12 simtime 1220 source 62


Pid 4172 Destinations are: 
45 27 35 8 60 7 9 51 23 34 19 5 num dests 12 simtime 1240 source 10


Pid 4204 Destinations are: 
8 34 54 9 39 20 43 28 16 0 33 23 num dests 12 simtime 1250 source 44


Pid 4246 Destinations are: 
48 56 44 38 8 11 31 53 40 10 41 4 num dests 12 simtime 1260 source 45


Pid 4286 Destinations are: 
18 13 63 56 1 27 48 19 39 7 50 29 num dests 12 simtime 1270 source 8


Pid 4317 Destinations are: 
0 59 41 16 36 60 48 3 57 11 2 21 num dests 12 simtime 1280 source 53


Pid 4379 Destinations are: 
57 63 56 25 32 12 40 61 15 30 59 34 num dests 12 simtime 1300 source 46


Pid 4469 Destinations are: 
22 24 7 59 41 27 16 12 10 23 8 17 num dests 12 simtime 1330 source 63


Pid 4500 Destinations are: 
57 63 56 26 33 13 41 61 16 31 59 35 num dests 12 simtime 1340 source 6


Pid 4528 Destinations are: 
22 26 41 53 62 59 28 38 2 63 60 31 num dests 12 simtime 1350 source 48


Pid 4562 Destinations are: 
24 4 50 1 32 55 22 30 43 56 60 25 num dests 12 simtime 1360 source 58


Pid 4603 Destinations are: 
46 11 15 20 28 23 6 42 4 39 34 37 num dests 12 simtime 1370 source 41


Pid 4643 Destinations are: 
32 38 19 60 39 51 57 2 22 55 1 45 num dests 12 simtime 1380 source 12


Pid 4671 Destinations are: 
8 41 15 24 18 53 59 58 1 28 55 48 num dests 12 simtime 1390 source 43


Pid 4704 Destinations are: 
46 12 16 21 29 24 6 42 4 40 35 38 num dests 12 simtime 1400 source 11


Pid 4745 Destinations are: 
55 59 48 61 18 42 23 26 44 22 8 49 num dests 12 simtime 1410 source 0


Pid 4779 Destinations are: 
12 3 54 53 42 14 25 31 11 28 48 38 num dests 12 simtime 1420 source 2


Pid 4817 Destinations are: 
49 8 44 41 60 0 39 35 37 15 61 9 num dests 12 simtime 1430 source 52


Pid 4876 Destinations are: 
62 37 4 12 39 24 2 52 54 16 53 27 num dests 12 simtime 1450 source 1


Pid 4911 Destinations are: 
33 50 5 0 45 4 37 9 11 6 13 44 num dests 12 simtime 1460 source 34


Pid 4935 Destinations are: 
12 61 17 56 4 41 39 50 51 40 1 55 num dests 12 simtime 1470 source 54


Pid 4972 Destinations are: 
44 20 0 26 1 40 5 21 41 50 51 47 num dests 12 simtime 1480 source 3


Pid 5003 Destinations are: 
11 60 48 47 44 30 0 21 37 63 40 31 num dests 12 simtime 1490 source 42


Pid 5034 Destinations are: 
16 39 58 35 1 7 11 19 60 57 17 37 num dests 12 simtime 1500 source 18


Pid 5075 Destinations are: 
11 60 48 47 44 31 0 21 38 63 41 32 num dests 12 simtime 1510 source 22


Pid 5114 Destinations are: 
40 0 38 29 47 31 15 42 39 3 54 36 num dests 12 simtime 1520 source 37


Pid 5159 Destinations are: 
63 38 56 40 23 28 6 41 37 44 62 45 num dests 12 simtime 1530 source 49


Pid 5203 Destinations are: 
10 23 21 50 63 7 47 22 19 1 6 53 num dests 12 simtime 1540 source 35


Pid 5234 Destinations are: 
60 51 44 17 36 38 58 52 56 15 9 61 num dests 12 simtime 1550 source 39


Pid 5267 Destinations are: 
21 13 41 60 59 37 33 1 17 0 3 39 num dests 12 simtime 1560 source 14


Pid 5344 Destinations are: 
26 32 44 55 47 23 15 7 14 34 36 13 num dests 12 simtime 1580 source 42


Pid 5383 Destinations are: 
41 61 5 55 34 28 54 53 11 19 38 33 num dests 12 simtime 1590 source 21


Pid 5428 Destinations are: 
44 23 15 46 56 24 25 62 55 9 30 59 num dests 12 simtime 1600 source 19


Pid 5490 Destinations are: 
50 56 24 10 20 3 11 32 12 29 40 52 num dests 12 simtime 1620 source 34


Pid 5522 Destinations are: 
6 28 53 61 47 43 30 12 49 27 16 21 num dests 12 simtime 1630 source 7


Pid 5569 Destinations are: 
45 40 49 57 10 19 17 27 21 63 28 18 num dests 12 simtime 1640 source 5


Pid 5609 Destinations are: 
61 31 48 10 21 37 0 58 26 33 4 7 num dests 12 simtime 1650 source 40


Pid 5643 Destinations are: 
16 30 41 6 49 13 4 52 24 53 21 19 num dests 12 simtime 1660 source 12


Pid 5674 Destinations are: 
3 20 51 62 50 22 63 21 28 10 35 15 num dests 12 simtime 1670 source 46


Pid 5702 Destinations are: 
54 26 0 2 17 52 23 27 8 41 60 12 num dests 12 simtime 1680 source 44


Pid 5732 Destinations are: 
61 1 30 26 4 56 19 40 16 49 23 32 num dests 12 simtime 1690 source 60


Pid 5766 Destinations are: 
55 39 56 37 52 47 26 6 27 28 50 19 num dests 12 simtime 1700 source 33


Pid 5808 Destinations are: 
24 50 55 12 21 27 37 15 10 40 47 7 num dests 12 simtime 1710 source 35


Pid 5845 Destinations are: 
58 18 27 5 34 0 46 57 48 24 32 15 num dests 12 simtime 1720 source 10


Pid 5884 Destinations are: 
25 50 55 12 22 28 37 16 10 40 47 7 num dests 12 simtime 1730 source 15


Pid 5921 Destinations are: 
29 14 59 51 45 53 60 16 47 5 55 58 num dests 12 simtime 1740 source 21


Pid 5959 Destinations are: 
61 2 31 27 5 57 20 41 17 50 24 33 num dests 12 simtime 1750 source 0


Pid 6000 Destinations are: 
15 34 11 51 35 50 41 27 56 49 3 53 num dests 12 simtime 1760 source 45


Pid 6030 Destinations are: 
61 20 9 13 51 27 42 4 63 30 52 48 num dests 12 simtime 1770 source 11


Pid 6067 Destinations are: 
47 35 13 34 6 32 16 28 2 25 18 44 num dests 12 simtime 1780 source 12


Pid 6107 Destinations are: 
23 50 11 10 45 46 37 24 27 2 53 54 num dests 12 simtime 1790 source 21


Pid 6150 Destinations are: 
48 55 10 30 58 8 52 11 31 39 15 16 num dests 12 simtime 1800 source 24


Pid 6182 Destinations are: 
34 4 36 49 37 44 43 24 16 3 53 25 num dests 12 simtime 1810 source 41


Pid 6221 Destinations are: 
53 24 1 10 4 33 30 19 32 27 57 18 num dests 12 simtime 1820 source 41


Pid 6260 Destinations are: 
14 54 24 16 22 13 30 33 47 42 18 11 num dests 12 simtime 1830 source 36


Pid 6294 Destinations are: 
47 12 3 31 28 58 32 24 23 37 4 26 num dests 12 simtime 1840 source 16


Pid 6366 Destinations are: 
17 8 38 41 3 31 60 20 6 30 14 1 num dests 12 simtime 1860 source 57


Pid 6405 Destinations are: 
8 56 39 42 6 57 11 13 28 60 62 10 num dests 12 simtime 1870 source 53


Pid 6435 Destinations are: 
63 17 27 6 14 60 8 20 35 25 4 41 num dests 12 simtime 1880 source 33


Pid 6474 Destinations are: 
31 60 43 41 9 39 20 11 21 40 17 18 num dests 12 simtime 1890 source 44


Pid 6510 Destinations are: 
40 62 52 5 26 29 38 55 28 63 21 2 num dests 12 simtime 1900 source 7


Pid 6541 Destinations are: 
38 53 12 15 9 60 39 63 13 55 34 28 num dests 12 simtime 1910 source 18


Pid 6575 Destinations are: 
34 54 49 2 52 3 31 11 4 58 53 38 num dests 12 simtime 1920 source 1


Pid 6608 Destinations are: 
18 0 43 29 46 47 17 25 44 6 28 7 num dests 12 simtime 1930 source 58


Pid 6650 Destinations are: 
58 1 51 15 16 24 6 8 18 25 4 38 num dests 12 simtime 1940 source 0


Pid 6731 Destinations are: 
2 10 39 11 15 29 12 41 21 48 26 30 num dests 12 simtime 1960 source 7


Pid 6753 Destinations are: 
48 27 6 17 63 2 33 10 23 21 3 57 num dests 12 simtime 1970 source 22


Pid 6784 Destinations are: 
41 28 18 8 61 6 63 31 12 9 47 11 num dests 12 simtime 1980 source 43


Pid 6819 Destinations are: 
16 40 57 48 31 5 18 15 35 56 4 2 num dests 12 simtime 1990 source 29
Class 0:
Packet latency average = 43.5774
	minimum = 2
	maximum = 672
Network latency average = 43.5774
	minimum = 2
	maximum = 672
Slowest packet = 5324
Flit latency average = 43.5774
	minimum = 2
	maximum = 672
Slowest flit = 5324
Fragmentation average = 0
	minimum = 0
	maximum = 0
Injected packet rate average = 0.0254766
	minimum = 0.019 (at node 4)
	maximum = 0.0355 (at node 27)
Accepted packet rate average = 0.0384141
	minimum = 0.031 (at node 46)
	maximum = 0.0465 (at node 39)
Injected flit rate average = 0.0254766
	minimum = 0.019 (at node 4)
	maximum = 0.0355 (at node 27)
Accepted flit rate average= 0.0384141
	minimum = 0.031 (at node 46)
	maximum = 0.0465 (at node 39)
Injected packet length average = 1
Accepted packet length average = 1
Total in-flight flits = 163 (0 measured)
latency change    = 0.131217
throughput change = 0.0461664


Pid 6854 Destinations are: 
19 47 61 52 42 23 50 59 28 36 55 48 num dests 12 simtime 2000 source 30


Pid 6890 Destinations are: 
26 19 53 34 7 54 27 21 36 2 39 13 num dests 12 simtime 2010 source 56


Pid 6920 Destinations are: 
49 60 40 47 53 30 27 39 57 51 52 55 num dests 12 simtime 2020 source 14


Pid 6958 Destinations are: 
18 54 57 5 56 62 39 6 55 31 30 8 num dests 12 simtime 2030 source 41


Pid 6991 Destinations are: 
56 1 36 38 32 40 14 3 58 63 4 6 num dests 12 simtime 2040 source 17


Pid 7020 Destinations are: 
17 4 7 12 44 34 14 3 50 27 38 37 num dests 12 simtime 2050 source 42


Pid 7064 Destinations are: 
40 29 24 21 11 35 12 38 31 50 46 17 num dests 12 simtime 2060 source 18


Pid 7100 Destinations are: 
4 15 16 23 31 56 13 2 51 49 57 59 num dests 12 simtime 2070 source 40


Pid 7175 Destinations are: 
57 21 55 22 31 53 24 19 56 1 44 60 num dests 12 simtime 2090 source 33


Pid 7211 Destinations are: 
1 58 13 51 27 61 16 30 34 33 4 46 num dests 12 simtime 2100 source 40


Pid 7240 Destinations are: 
57 52 62 14 7 55 20 27 16 36 32 44 num dests 12 simtime 2110 source 61


Pid 7310 Destinations are: 
54 55 23 31 10 6 27 25 17 28 7 34 num dests 12 simtime 2130 source 59


Pid 7351 Destinations are: 
56 44 30 12 51 52 32 47 61 20 39 40 num dests 12 simtime 2140 source 42


Pid 7387 Destinations are: 
52 56 15 5 34 7 24 36 48 46 39 3 num dests 12 simtime 2150 source 62


Pid 7428 Destinations are: 
15 55 16 23 4 14 59 34 35 57 7 19 num dests 12 simtime 2160 source 13


Pid 7468 Destinations are: 
5 58 48 15 27 8 19 46 23 20 0 40 num dests 12 simtime 2170 source 57


Pid 7502 Destinations are: 
21 56 8 52 3 40 5 55 26 25 49 62 num dests 12 simtime 2180 source 39


Pid 7535 Destinations are: 
51 2 62 16 36 63 40 23 44 48 22 41 num dests 12 simtime 2190 source 19


Pid 7569 Destinations are: 
24 57 10 41 56 19 55 51 1 0 6 32 num dests 12 simtime 2200 source 11


Pid 7607 Destinations are: 
34 20 6 57 1 0 24 5 55 7 18 11 num dests 12 simtime 2210 source 32


Pid 7653 Destinations are: 
11 41 51 49 48 28 42 56 59 0 40 27 num dests 12 simtime 2220 source 57


Pid 7690 Destinations are: 
17 56 53 41 44 63 1 50 61 35 8 39 num dests 12 simtime 2230 source 33


Pid 7779 Destinations are: 
34 39 53 24 46 30 35 50 11 25 58 4 num dests 12 simtime 2260 source 37


Pid 7809 Destinations are: 
21 42 49 3 2 20 43 27 53 41 56 12 num dests 12 simtime 2270 source 33


Pid 7878 Destinations are: 
21 63 8 39 43 56 48 51 41 0 11 33 num dests 12 simtime 2290 source 53


Pid 7914 Destinations are: 
45 29 7 21 51 22 10 26 42 50 63 56 num dests 12 simtime 2300 source 55


Pid 7949 Destinations are: 
8 60 47 63 52 61 44 46 28 0 27 3 num dests 12 simtime 2310 source 43


Pid 7988 Destinations are: 
37 19 18 59 33 6 62 9 12 11 41 57 num dests 12 simtime 2320 source 31


Pid 8027 Destinations are: 
45 44 55 62 12 20 53 32 28 29 41 19 num dests 12 simtime 2330 source 46


Pid 8060 Destinations are: 
48 22 5 16 9 53 50 29 52 61 51 37 num dests 12 simtime 2340 source 2


Pid 8093 Destinations are: 
32 52 3 0 54 2 28 18 63 40 15 29 num dests 12 simtime 2350 source 56


Pid 8126 Destinations are: 
63 24 18 4 7 34 12 31 55 23 62 56 num dests 12 simtime 2360 source 54


Pid 8196 Destinations are: 
47 45 59 51 42 13 23 33 0 25 55 2 num dests 12 simtime 2380 source 46


Pid 8223 Destinations are: 
28 20 53 44 61 31 22 37 15 51 27 47 num dests 12 simtime 2390 source 19


Pid 8257 Destinations are: 
21 54 15 3 31 60 36 56 13 0 26 57 num dests 12 simtime 2400 source 19


Pid 8290 Destinations are: 
40 2 32 15 10 26 33 16 34 11 62 44 num dests 12 simtime 2410 source 13


Pid 8323 Destinations are: 
29 37 17 19 25 6 10 22 58 59 45 56 num dests 12 simtime 2420 source 48


Pid 8364 Destinations are: 
20 30 56 52 15 51 22 62 4 54 18 32 num dests 12 simtime 2430 source 45


Pid 8398 Destinations are: 
5 54 37 56 7 1 44 13 50 61 22 46 num dests 12 simtime 2440 source 47


Pid 8433 Destinations are: 
42 33 3 43 24 14 18 49 45 21 5 41 num dests 12 simtime 2450 source 7


Pid 8466 Destinations are: 
47 1 54 51 17 57 49 31 12 13 60 32 num dests 12 simtime 2460 source 20


Pid 8500 Destinations are: 
42 1 50 46 33 36 18 58 38 60 53 63 num dests 12 simtime 2470 source 24


Pid 8530 Destinations are: 
20 16 56 34 9 18 22 60 35 2 53 48 num dests 12 simtime 2480 source 6


Pid 8562 Destinations are: 
3 1 50 40 18 17 32 26 14 56 23 8 num dests 12 simtime 2490 source 11


Pid 8594 Destinations are: 
36 28 4 62 63 14 60 48 57 34 7 29 num dests 12 simtime 2500 source 21


Pid 8635 Destinations are: 
0 25 42 57 19 12 21 31 8 62 9 20 num dests 12 simtime 2510 source 32


Pid 8702 Destinations are: 
16 9 59 52 35 19 55 50 49 12 54 51 num dests 12 simtime 2530 source 42


Pid 8734 Destinations are: 
5 19 56 57 35 41 14 9 47 29 6 21 num dests 12 simtime 2540 source 37


Pid 8773 Destinations are: 
16 9 11 62 43 60 56 42 38 19 61 27 num dests 12 simtime 2550 source 51


Pid 8811 Destinations are: 
32 24 36 29 11 5 2 28 3 4 62 10 num dests 12 simtime 2560 source 48


Pid 8846 Destinations are: 
29 42 26 45 5 22 33 17 32 28 52 14 num dests 12 simtime 2570 source 47


Pid 8909 Destinations are: 
27 28 38 57 56 49 31 52 5 4 35 54 num dests 12 simtime 2590 source 30


Pid 9003 Destinations are: 
11 32 4 37 55 43 31 0 17 61 48 15 num dests 12 simtime 2620 source 24


Pid 9036 Destinations are: 
62 9 47 35 41 50 24 30 5 1 25 27 num dests 12 simtime 2630 source 23


Pid 9103 Destinations are: 
42 20 2 40 47 33 34 10 8 18 3 57 num dests 12 simtime 2650 source 22


Pid 9129 Destinations are: 
7 46 2 38 16 63 4 40 41 11 61 8 num dests 12 simtime 2660 source 20


Pid 9196 Destinations are: 
23 18 0 9 28 5 8 52 14 42 51 24 num dests 12 simtime 2680 source 30


Pid 9234 Destinations are: 
34 46 33 24 23 15 29 14 32 59 45 8 num dests 12 simtime 2690 source 60


Pid 9299 Destinations are: 
56 37 5 39 12 22 9 40 24 35 57 38 num dests 12 simtime 2710 source 63


Pid 9324 Destinations are: 
56 53 15 7 48 39 5 36 40 41 32 31 num dests 12 simtime 2720 source 9


Pid 9354 Destinations are: 
1 42 41 53 27 4 62 30 37 45 35 16 num dests 12 simtime 2730 source 13


Pid 9380 Destinations are: 
60 3 53 43 61 39 42 27 17 20 51 38 num dests 12 simtime 2740 source 11


Pid 9415 Destinations are: 
1 44 5 54 62 8 48 0 4 29 28 40 num dests 12 simtime 2750 source 58


Pid 9446 Destinations are: 
44 28 52 31 8 35 33 20 58 10 43 51 num dests 12 simtime 2760 source 62


Pid 9467 Destinations are: 
16 32 60 14 47 39 62 34 26 45 53 12 num dests 12 simtime 2770 source 35


Pid 9511 Destinations are: 
44 16 56 55 47 63 32 28 33 10 19 27 num dests 12 simtime 2780 source 24


Pid 9549 Destinations are: 
44 17 56 55 47 63 32 28 33 10 20 27 num dests 12 simtime 2790 source 14


Pid 9621 Destinations are: 
52 26 58 29 9 63 33 6 12 4 23 60 num dests 12 simtime 2810 source 27


Pid 9649 Destinations are: 
20 0 44 40 49 63 55 22 54 43 21 51 num dests 12 simtime 2820 source 13


Pid 9693 Destinations are: 
52 50 31 0 33 7 41 2 30 62 51 40 num dests 12 simtime 2830 source 4


Pid 9727 Destinations are: 
58 16 24 40 36 28 4 44 43 42 37 47 num dests 12 simtime 2840 source 20


Pid 9762 Destinations are: 
35 4 3 25 55 58 6 30 49 24 60 32 num dests 12 simtime 2850 source 41


Pid 9800 Destinations are: 
58 5 56 25 12 42 1 2 54 24 23 62 num dests 12 simtime 2860 source 18


Pid 9834 Destinations are: 
16 7 2 6 25 39 51 63 4 29 15 49 num dests 12 simtime 2870 source 55


Pid 9869 Destinations are: 
16 26 60 14 9 24 58 3 45 36 18 34 num dests 12 simtime 2880 source 27


Pid 9902 Destinations are: 
32 18 61 43 41 15 55 29 24 0 62 12 num dests 12 simtime 2890 source 48


Pid 9944 Destinations are: 
60 46 17 14 12 36 21 39 9 35 34 51 num dests 12 simtime 2900 source 42


Pid 9980 Destinations are: 
46 24 43 25 32 38 49 51 34 10 19 11 num dests 12 simtime 2910 source 36


Pid 10010 Destinations are: 
33 19 61 44 42 15 55 30 25 0 62 12 num dests 12 simtime 2920 source 18


Pid 10045 Destinations are: 
51 15 13 44 37 11 28 5 46 14 40 0 num dests 12 simtime 2930 source 39


Pid 10088 Destinations are: 
63 38 27 22 6 7 53 46 59 51 35 36 num dests 12 simtime 2940 source 15


Pid 10118 Destinations are: 
61 20 59 27 24 10 17 43 50 23 53 25 num dests 12 simtime 2950 source 49


Pid 10154 Destinations are: 
56 31 28 47 45 38 18 55 19 27 52 6 num dests 12 simtime 2960 source 37


Pid 10189 Destinations are: 
52 9 22 61 24 56 23 28 37 41 26 62 num dests 12 simtime 2970 source 45


Pid 10229 Destinations are: 
19 23 25 44 8 49 9 38 58 63 40 22 num dests 12 simtime 2980 source 11


Pid 10269 Destinations are: 
48 62 11 50 15 37 60 49 12 8 32 51 num dests 12 simtime 2990 source 17
Class 0:
Packet latency average = 63.2244
	minimum = 2
	maximum = 568
Network latency average = 63.0369
	minimum = 2
	maximum = 568
Slowest packet = 8488
Flit latency average = 63.0369
	minimum = 2
	maximum = 568
Slowest flit = 8488
Fragmentation average = 0
	minimum = 0
	maximum = 0
Injected packet rate average = 0.0245469
	minimum = 0.014 (at node 14)
	maximum = 0.033 (at node 32)
Accepted packet rate average = 0.039
	minimum = 0.024 (at node 30)
	maximum = 0.058 (at node 51)
Injected flit rate average = 0.0245469
	minimum = 0.014 (at node 14)
	maximum = 0.033 (at node 32)
Accepted flit rate average= 0.039
	minimum = 0.024 (at node 30)
	maximum = 0.058 (at node 51)
Injected packet length average = 1
Accepted packet length average = 1
Total in-flight flits = 191 (0 measured)
latency change    = 0.31075
throughput change = 0.015024
Warmed up ...Time used is 3000 cycles


Pid 10303 Destinations are: 
8 50 14 30 52 22 29 15 16 33 61 49 num dests 12 simtime 3000 source 48


Pid 10344 Destinations are: 
39 1 12 11 41 54 6 55 47 42 30 38 num dests 12 simtime 3010 source 7


Pid 10377 Destinations are: 
55 45 5 40 27 29 41 8 18 39 57 7 num dests 12 simtime 3020 source 26


Pid 10411 Destinations are: 
43 58 61 45 2 9 25 7 39 14 32 8 num dests 12 simtime 3030 source 35


Pid 10444 Destinations are: 
4 47 55 23 36 52 27 62 49 0 12 40 num dests 12 simtime 3040 source 13


Pid 10482 Destinations are: 
32 60 22 2 43 8 39 47 13 26 38 10 num dests 12 simtime 3050 source 37


Pid 10520 Destinations are: 
35 47 29 30 23 39 43 45 33 46 7 9 num dests 12 simtime 3060 source 10


Pid 10551 Destinations are: 
47 43 5 17 19 26 44 10 48 0 9 23 num dests 12 simtime 3070 source 15


Pid 10642 Destinations are: 
28 12 24 32 62 51 15 21 60 11 23 48 num dests 12 simtime 3090 source 25


Pid 10713 Destinations are: 
60 14 58 47 59 20 7 32 12 4 52 33 num dests 12 simtime 3110 source 11


Pid 10743 Destinations are: 
44 55 14 56 36 2 31 40 33 50 35 10 num dests 12 simtime 3120 source 23


Pid 10785 Destinations are: 
12 28 31 53 7 10 54 51 3 8 38 41 num dests 12 simtime 3130 source 29


Pid 10820 Destinations are: 
0 23 53 14 62 16 17 46 6 56 52 19 num dests 12 simtime 3140 source 55


Pid 10883 Destinations are: 
34 60 1 62 4 18 61 63 39 41 7 14 num dests 12 simtime 3160 source 9


Pid 10914 Destinations are: 
35 7 21 34 39 14 16 29 3 41 47 27 num dests 12 simtime 3170 source 2


Pid 10944 Destinations are: 
54 44 48 31 60 12 59 27 32 33 13 10 num dests 12 simtime 3180 source 43


Pid 11051 Destinations are: 
24 2 6 44 19 31 28 62 15 33 20 1 num dests 12 simtime 3210 source 49


Pid 11120 Destinations are: 
20 37 54 59 13 52 14 0 32 51 12 45 num dests 12 simtime 3230 source 53


Pid 11149 Destinations are: 
61 42 49 55 2 46 7 45 38 47 53 15 num dests 12 simtime 3240 source 41


Pid 11176 Destinations are: 
59 33 16 25 46 2 6 32 58 44 45 29 num dests 12 simtime 3250 source 56


Pid 11242 Destinations are: 
41 15 16 37 51 39 20 32 63 0 43 61 num dests 12 simtime 3270 source 26


Pid 11312 Destinations are: 
43 17 0 9 53 13 7 5 12 61 6 14 num dests 12 simtime 3290 source 55


Pid 11342 Destinations are: 
0 62 35 37 52 6 39 49 45 30 11 42 num dests 12 simtime 3300 source 55


Pid 11388 Destinations are: 
41 9 28 2 23 43 31 61 33 5 20 15 num dests 12 simtime 3310 source 18


Pid 11417 Destinations are: 
54 39 55 45 9 21 31 41 25 36 47 27 num dests 12 simtime 3320 source 51


Pid 11450 Destinations are: 
5 33 58 7 40 43 47 42 50 10 22 63 num dests 12 simtime 3330 source 56


Pid 11484 Destinations are: 
30 15 31 45 17 1 40 61 41 28 42 5 num dests 12 simtime 3340 source 6


Pid 11524 Destinations are: 
37 27 29 5 31 20 51 43 1 60 50 38 num dests 12 simtime 3350 source 53


Pid 11566 Destinations are: 
5 34 58 7 41 44 48 43 51 10 22 63 num dests 12 simtime 3360 source 26


Pid 11606 Destinations are: 
44 28 47 59 55 15 45 38 32 25 6 40 num dests 12 simtime 3370 source 35


Pid 11646 Destinations are: 
12 41 6 54 0 15 46 31 28 11 1 57 num dests 12 simtime 3380 source 24


Pid 11687 Destinations are: 
50 9 11 36 20 19 47 28 29 30 52 26 num dests 12 simtime 3390 source 8


Pid 11720 Destinations are: 
38 28 30 6 32 21 52 44 1 60 51 39 num dests 12 simtime 3400 source 3


Pid 11758 Destinations are: 
11 49 14 17 44 58 22 48 47 59 19 57 num dests 12 simtime 3410 source 61


Pid 11792 Destinations are: 
19 14 55 53 11 44 47 54 8 2 60 7 num dests 12 simtime 3420 source 29


Pid 11832 Destinations are: 
48 11 58 46 21 30 0 32 50 8 55 16 num dests 12 simtime 3430 source 4


Pid 11870 Destinations are: 
12 14 21 22 6 27 23 50 19 38 48 60 num dests 12 simtime 3440 source 53


Pid 11900 Destinations are: 
61 9 19 32 27 59 0 57 62 4 37 45 num dests 12 simtime 3450 source 41


Pid 12014 Destinations are: 
17 54 19 45 38 36 25 56 0 10 61 53 num dests 12 simtime 3490 source 28


Pid 12041 Destinations are: 
5 28 13 59 48 55 3 2 61 6 45 58 num dests 12 simtime 3500 source 7


Pid 12084 Destinations are: 
56 2 47 35 20 38 32 51 60 1 45 52 num dests 12 simtime 3510 source 6


Pid 12123 Destinations are: 
59 40 30 23 47 20 19 5 52 43 56 15 num dests 12 simtime 3520 source 54


Pid 12155 Destinations are: 
54 3 14 9 33 26 48 27 25 29 18 31 num dests 12 simtime 3530 source 42


Pid 12198 Destinations are: 
36 31 52 48 21 20 54 24 38 12 4 47 num dests 12 simtime 3540 source 50


Pid 12234 Destinations are: 
46 5 17 40 25 55 34 28 56 58 42 7 num dests 12 simtime 3550 source 8


Pid 12269 Destinations are: 
37 29 53 61 6 11 34 23 63 0 16 41 num dests 12 simtime 3560 source 45


Pid 12309 Destinations are: 
50 45 4 29 49 37 10 51 32 15 12 56 num dests 12 simtime 3570 source 34


Pid 12335 Destinations are: 
38 30 53 61 6 11 35 23 63 0 16 42 num dests 12 simtime 3580 source 25


Pid 12365 Destinations are: 
7 46 21 16 26 23 51 62 3 12 37 5 num dests 12 simtime 3590 source 31


Pid 12400 Destinations are: 
37 18 6 52 12 2 8 58 21 19 9 24 num dests 12 simtime 3600 source 61


Pid 12432 Destinations are: 
55 3 62 59 41 15 7 23 54 9 56 49 num dests 12 simtime 3610 source 22


Pid 12479 Destinations are: 
8 33 42 31 35 2 17 30 54 12 39 1 num dests 12 simtime 3620 source 38


Pid 12508 Destinations are: 
2 14 58 32 7 11 60 53 48 15 47 19 num dests 12 simtime 3630 source 37


Pid 12536 Destinations are: 
41 5 12 37 28 52 61 10 7 48 38 6 num dests 12 simtime 3640 source 19


Pid 12564 Destinations are: 
49 15 21 13 33 16 47 48 39 25 53 57 num dests 12 simtime 3650 source 0


Pid 12595 Destinations are: 
32 2 60 29 62 57 13 24 37 31 12 34 num dests 12 simtime 3660 source 41


Pid 12654 Destinations are: 
4 34 28 21 26 25 31 14 30 54 3 16 num dests 12 simtime 3680 source 19


Pid 12685 Destinations are: 
18 41 63 62 6 59 27 55 30 45 36 38 num dests 12 simtime 3690 source 37


Pid 12722 Destinations are: 
62 42 21 33 48 0 39 24 16 46 52 38 num dests 12 simtime 3700 source 3


Pid 12760 Destinations are: 
29 37 53 2 55 51 49 36 13 42 27 19 num dests 12 simtime 3710 source 60


Pid 12798 Destinations are: 
38 35 56 1 51 37 10 50 44 13 23 22 num dests 12 simtime 3720 source 60


Pid 12837 Destinations are: 
10 49 48 19 31 36 1 29 51 11 47 2 num dests 12 simtime 3730 source 15


Pid 12862 Destinations are: 
38 35 57 1 52 37 10 51 45 13 23 22 num dests 12 simtime 3740 source 40


Pid 12900 Destinations are: 
0 29 43 46 16 42 10 6 50 32 60 33 num dests 12 simtime 3750 source 9


Pid 12925 Destinations are: 
11 33 0 25 37 62 55 22 43 24 27 57 num dests 12 simtime 3760 source 6


Pid 12955 Destinations are: 
63 52 26 33 49 19 22 30 62 55 61 6 num dests 12 simtime 3770 source 60


Pid 12984 Destinations are: 
11 59 6 39 3 41 55 10 48 5 54 19 num dests 12 simtime 3780 source 58


Pid 13021 Destinations are: 
19 35 50 54 51 32 34 8 17 26 57 62 num dests 12 simtime 3790 source 3


Pid 13053 Destinations are: 
63 53 26 34 50 19 22 31 62 56 61 6 num dests 12 simtime 3800 source 30


Pid 13156 Destinations are: 
23 35 50 14 62 16 59 55 42 19 7 36 num dests 12 simtime 3830 source 22


Pid 13213 Destinations are: 
49 50 38 54 57 9 22 12 3 30 36 53 num dests 12 simtime 3850 source 13


Pid 13244 Destinations are: 
51 27 54 29 9 40 39 8 44 30 31 47 num dests 12 simtime 3860 source 45


Pid 13281 Destinations are: 
29 16 28 3 58 13 39 62 49 10 31 12 num dests 12 simtime 3870 source 40


Pid 13313 Destinations are: 
38 26 40 51 62 10 27 28 6 19 42 2 num dests 12 simtime 3880 source 43


Pid 13357 Destinations are: 
30 58 44 46 22 40 2 49 54 26 16 33 num dests 12 simtime 3890 source 11


Pid 13391 Destinations are: 
37 14 60 59 55 52 17 38 1 63 43 8 num dests 12 simtime 3900 source 42


Pid 13457 Destinations are: 
36 44 29 21 2 22 27 51 57 50 13 42 num dests 12 simtime 3920 source 60


Pid 13483 Destinations are: 
55 53 18 35 47 9 5 31 0 62 28 41 num dests 12 simtime 3930 source 1


Pid 13520 Destinations are: 
45 22 23 13 34 8 18 37 56 32 21 54 num dests 12 simtime 3940 source 60


Pid 13545 Destinations are: 
31 18 7 57 63 34 0 9 55 40 25 6 num dests 12 simtime 3950 source 22


Pid 13582 Destinations are: 
54 8 17 19 11 27 2 36 18 34 45 12 num dests 12 simtime 3960 source 28


Pid 13615 Destinations are: 
34 25 42 53 20 12 30 7 28 49 39 41 num dests 12 simtime 3970 source 44


Pid 13651 Destinations are: 
31 56 0 29 1 8 24 38 30 32 27 57 num dests 12 simtime 3980 source 5


Pid 13685 Destinations are: 
47 44 20 31 42 22 8 19 3 13 33 43 num dests 12 simtime 3990 source 16
Class 0:
Packet latency average = 57.3222
	minimum = 2
	maximum = 1044
Network latency average = 54.614
	minimum = 2
	maximum = 876
Slowest packet = 10337
Flit latency average = 69.4461
	minimum = 2
	maximum = 1108
Slowest flit = 9658
Fragmentation average = 0
	minimum = 0
	maximum = 0
Injected packet rate average = 0.0247656
	minimum = 0.016 (at node 21)
	maximum = 0.035 (at node 40)
Accepted packet rate average = 0.0388125
	minimum = 0.021 (at node 18)
	maximum = 0.053 (at node 55)
Injected flit rate average = 0.0247656
	minimum = 0.016 (at node 21)
	maximum = 0.035 (at node 40)
Accepted flit rate average= 0.0388125
	minimum = 0.021 (at node 18)
	maximum = 0.053 (at node 55)
Injected packet length average = 1
Accepted packet length average = 1
Total in-flight flits = 198 (195 measured)
latency change    = 0.102965
throughput change = 0.00483092


Pid 13745 Destinations are: 
13 52 28 12 4 17 53 27 23 1 45 61 num dests 12 simtime 4010 source 22


Pid 13778 Destinations are: 
31 26 9 15 10 46 59 12 24 23 21 8 num dests 12 simtime 4020 source 56


Pid 13819 Destinations are: 
47 58 17 0 39 19 21 54 63 57 12 4 num dests 12 simtime 4030 source 10


Pid 13856 Destinations are: 
63 7 11 54 19 31 15 44 61 49 62 47 num dests 12 simtime 4040 source 5


Pid 13892 Destinations are: 
4 18 39 6 21 19 35 31 42 28 62 11 num dests 12 simtime 4050 source 59


Pid 13920 Destinations are: 
52 62 11 15 17 53 50 39 10 49 0 43 num dests 12 simtime 4060 source 2


Pid 13958 Destinations are: 
52 42 22 41 47 27 61 17 3 16 5 18 num dests 12 simtime 4070 source 44


Pid 14001 Destinations are: 
9 62 0 18 31 22 44 43 23 61 39 26 num dests 12 simtime 4080 source 45


Pid 14038 Destinations are: 
51 16 19 43 21 33 61 34 9 28 14 47 num dests 12 simtime 4090 source 62


Pid 14079 Destinations are: 
9 62 0 18 32 22 45 44 23 61 40 27 num dests 12 simtime 4100 source 25


Pid 14110 Destinations are: 
54 60 9 56 29 17 37 25 13 46 33 39 num dests 12 simtime 4110 source 36


Pid 14137 Destinations are: 
46 45 25 32 16 23 48 30 24 36 27 58 num dests 12 simtime 4120 source 6


Pid 14166 Destinations are: 
28 54 30 55 3 32 44 25 52 16 43 63 num dests 12 simtime 4130 source 9


Pid 14207 Destinations are: 
24 12 16 57 39 2 22 40 10 1 38 9 num dests 12 simtime 4140 source 42


Pid 14231 Destinations are: 
35 16 51 15 5 1 14 54 28 6 30 43 num dests 12 simtime 4150 source 11


Pid 14257 Destinations are: 
37 59 8 25 35 32 36 63 24 21 14 55 num dests 12 simtime 4160 source 30


Pid 14360 Destinations are: 
51 53 26 55 60 61 37 12 52 56 46 19 num dests 12 simtime 4190 source 21


Pid 14402 Destinations are: 
39 46 31 22 0 28 32 12 44 40 13 7 num dests 12 simtime 4200 source 48


Pid 14434 Destinations are: 
6 41 30 14 57 56 40 29 24 2 45 46 num dests 12 simtime 4210 source 53


Pid 14466 Destinations are: 
33 44 52 40 29 62 15 32 1 51 16 24 num dests 12 simtime 4220 source 0


Pid 14545 Destinations are: 
11 24 51 2 62 60 61 18 16 20 27 17 num dests 12 simtime 4250 source 28


Pid 14632 Destinations are: 
14 3 63 28 43 44 47 25 17 56 20 13 num dests 12 simtime 4280 source 26


Pid 14667 Destinations are: 
10 53 51 37 1 47 14 3 7 28 31 45 num dests 12 simtime 4290 source 54


Pid 14711 Destinations are: 
2 48 20 23 41 52 62 4 26 43 1 55 num dests 12 simtime 4300 source 56


Pid 14749 Destinations are: 
62 37 59 45 30 47 54 16 12 51 5 19 num dests 12 simtime 4310 source 55


Pid 14780 Destinations are: 
12 43 34 44 18 23 19 16 15 27 52 58 num dests 12 simtime 4320 source 28


Pid 14901 Destinations are: 
9 55 39 12 16 6 36 24 34 47 21 58 num dests 12 simtime 4360 source 2


Pid 14929 Destinations are: 
25 36 9 55 62 13 17 41 15 31 34 61 num dests 12 simtime 4370 source 59


Pid 14963 Destinations are: 
20 0 50 45 37 25 49 33 19 56 41 10 num dests 12 simtime 4380 source 28


Pid 14999 Destinations are: 
3 12 61 25 35 6 10 42 32 36 29 46 num dests 12 simtime 4390 source 23


Pid 15033 Destinations are: 
4 48 60 34 15 20 30 33 14 9 2 36 num dests 12 simtime 4400 source 61


Pid 15070 Destinations are: 
40 51 33 10 35 41 24 44 3 27 26 45 num dests 12 simtime 4410 source 61


Pid 15143 Destinations are: 
13 26 40 49 56 23 27 18 39 17 61 19 num dests 12 simtime 4430 source 46


Pid 15200 Destinations are: 
47 18 46 25 14 0 28 7 39 20 35 4 num dests 12 simtime 4450 source 32


Pid 15225 Destinations are: 
13 27 41 49 56 24 28 19 40 18 61 20 num dests 12 simtime 4460 source 16


Pid 15256 Destinations are: 
8 22 46 3 26 58 28 27 16 63 44 56 num dests 12 simtime 4470 source 41


Pid 15292 Destinations are: 
8 27 21 17 63 15 18 26 61 14 29 0 num dests 12 simtime 4480 source 36


Pid 15328 Destinations are: 
55 13 60 56 58 21 28 44 29 31 20 53 num dests 12 simtime 4490 source 0


Pid 15364 Destinations are: 
52 61 16 36 35 44 49 0 6 27 21 59 num dests 12 simtime 4500 source 22


Pid 15398 Destinations are: 
58 3 60 54 25 0 47 33 17 34 29 4 num dests 12 simtime 4510 source 35


Pid 15440 Destinations are: 
47 24 50 22 6 39 27 8 61 41 23 9 num dests 12 simtime 4520 source 26


Pid 15483 Destinations are: 
63 35 42 36 3 21 58 37 15 9 5 59 num dests 12 simtime 4530 source 32


Pid 15518 Destinations are: 
57 18 48 60 28 25 11 55 51 24 27 54 num dests 12 simtime 4540 source 14


Pid 15547 Destinations are: 
22 38 3 0 51 14 43 11 5 54 4 48 num dests 12 simtime 4550 source 35


Pid 15587 Destinations are: 
28 30 24 35 10 29 3 56 40 38 63 34 num dests 12 simtime 4560 source 60


Pid 15622 Destinations are: 
51 56 9 57 61 24 38 33 30 59 45 55 num dests 12 simtime 4570 source 10


Pid 15658 Destinations are: 
37 6 21 47 59 29 2 51 11 10 49 13 num dests 12 simtime 4580 source 43


Pid 15724 Destinations are: 
25 8 26 37 40 43 59 35 36 33 55 31 num dests 12 simtime 4600 source 41


Pid 15754 Destinations are: 
19 59 13 51 26 54 27 44 61 25 22 32 num dests 12 simtime 4610 source 60


Pid 15847 Destinations are: 
45 63 31 1 44 4 23 29 46 48 3 26 num dests 12 simtime 4640 source 52


Pid 15910 Destinations are: 
3 26 13 43 33 46 49 36 14 40 59 27 num dests 12 simtime 4660 source 63


Pid 15936 Destinations are: 
47 29 52 43 14 26 33 20 54 51 53 7 num dests 12 simtime 4670 source 49


Pid 15967 Destinations are: 
57 23 7 10 24 63 5 22 25 38 8 35 num dests 12 simtime 4680 source 40


Pid 16000 Destinations are: 
60 22 20 36 49 47 41 48 21 14 2 61 num dests 12 simtime 4690 source 27


Pid 16030 Destinations are: 
48 30 52 44 14 27 34 21 54 51 53 7 num dests 12 simtime 4700 source 19


Pid 16061 Destinations are: 
33 52 62 39 12 63 59 16 28 45 22 8 num dests 12 simtime 4710 source 4


Pid 16098 Destinations are: 
19 8 26 49 58 12 27 11 5 33 61 17 num dests 12 simtime 4720 source 30


Pid 16136 Destinations are: 
14 7 49 10 50 40 35 39 21 23 55 52 num dests 12 simtime 4730 source 8


Pid 16171 Destinations are: 
38 36 22 26 37 45 51 0 3 33 54 25 num dests 12 simtime 4740 source 21


Pid 16211 Destinations are: 
9 14 60 63 55 54 46 33 4 8 2 53 num dests 12 simtime 4750 source 42


Pid 16251 Destinations are: 
41 44 13 11 0 31 17 37 27 58 49 63 num dests 12 simtime 4760 source 43


Pid 16288 Destinations are: 
4 7 38 60 61 1 19 5 40 45 16 63 num dests 12 simtime 4770 source 15


Pid 16385 Destinations are: 
39 53 12 46 50 44 26 17 27 48 38 5 num dests 12 simtime 4800 source 32


Pid 16413 Destinations are: 
0 44 19 53 1 59 17 25 31 58 63 13 num dests 12 simtime 4810 source 41


Pid 16451 Destinations are: 
60 13 32 18 40 34 25 48 17 37 14 63 num dests 12 simtime 4820 source 51


Pid 16490 Destinations are: 
54 15 25 62 39 44 12 21 32 63 34 41 num dests 12 simtime 4830 source 29


Pid 16568 Destinations are: 
15 27 20 4 18 59 12 39 44 63 1 60 num dests 12 simtime 4850 source 38


Pid 16607 Destinations are: 
31 41 44 26 22 50 25 19 45 49 27 35 num dests 12 simtime 4860 source 53


Pid 16643 Destinations are: 
40 10 35 48 3 12 1 63 45 42 55 6 num dests 12 simtime 4870 source 57


Pid 16683 Destinations are: 
28 24 27 0 62 23 19 47 41 8 48 25 num dests 12 simtime 4880 source 36


Pid 16718 Destinations are: 
11 13 46 6 4 50 35 20 23 12 37 48 num dests 12 simtime 4890 source 30


Pid 16750 Destinations are: 
43 61 42 26 2 0 37 17 6 63 54 27 num dests 12 simtime 4900 source 23


Pid 16826 Destinations are: 
40 35 23 45 32 34 60 31 18 52 10 4 num dests 12 simtime 4920 source 13


Pid 16855 Destinations are: 
38 56 54 47 18 27 60 40 32 1 7 3 num dests 12 simtime 4930 source 33


Pid 16893 Destinations are: 
52 17 26 37 57 19 58 8 48 11 15 23 num dests 12 simtime 4940 source 3


Pid 16926 Destinations are: 
30 38 13 51 27 1 32 43 11 22 37 63 num dests 12 simtime 4950 source 39


Pid 16963 Destinations are: 
3 55 42 61 37 1 15 13 9 43 40 5 num dests 12 simtime 4960 source 11


Pid 17007 Destinations are: 
14 17 59 5 16 30 12 25 36 29 39 34 num dests 12 simtime 4970 source 52


Pid 17045 Destinations are: 
40 28 34 42 33 11 7 48 55 12 10 53 num dests 12 simtime 4980 source 58


Pid 17074 Destinations are: 
61 3 37 10 56 8 13 58 29 41 4 50 num dests 12 simtime 4990 source 57
Class 0:
Packet latency average = 71.2846
	minimum = 2
	maximum = 1561
Network latency average = 64.0623
	minimum = 2
	maximum = 1561
Slowest packet = 11309
Flit latency average = 71.8992
	minimum = 2
	maximum = 1561
Slowest flit = 11309
Fragmentation average = 0
	minimum = 0
	maximum = 0
Injected packet rate average = 0.0244688
	minimum = 0.018 (at node 31)
	maximum = 0.031 (at node 3)
Accepted packet rate average = 0.0386797
	minimum = 0.027 (at node 18)
	maximum = 0.0465 (at node 55)
Injected flit rate average = 0.0244688
	minimum = 0.018 (at node 31)
	maximum = 0.031 (at node 3)
Accepted flit rate average= 0.0386797
	minimum = 0.027 (at node 18)
	maximum = 0.0465 (at node 55)
Injected packet length average = 1
Accepted packet length average = 1
Total in-flight flits = 179 (179 measured)
latency change    = 0.195869
throughput change = 0.00343365


Pid 17099 Destinations are: 
18 57 14 28 43 6 33 30 34 58 61 9 num dests 12 simtime 5000 source 21


Pid 17127 Destinations are: 
13 61 36 31 38 6 45 58 10 7 14 30 num dests 12 simtime 5010 source 29


Pid 17162 Destinations are: 
22 7 30 18 45 5 63 6 35 14 13 40 num dests 12 simtime 5020 source 15


Pid 17206 Destinations are: 
30 28 47 19 37 51 63 56 53 11 12 16 num dests 12 simtime 5030 source 52


Pid 17240 Destinations are: 
13 12 3 23 62 58 26 18 30 9 10 4 num dests 12 simtime 5040 source 49


Pid 17304 Destinations are: 
3 53 6 44 10 48 59 30 54 14 51 8 num dests 12 simtime 5060 source 45


Pid 17333 Destinations are: 
46 21 58 13 29 32 8 36 62 52 37 50 num dests 12 simtime 5070 source 34


Pid 17366 Destinations are: 
43 5 6 54 21 45 1 48 35 41 28 62 num dests 12 simtime 5080 source 63


Pid 17403 Destinations are: 
11 19 53 20 48 41 33 14 27 3 34 56 num dests 12 simtime 5090 source 61


Pid 17459 Destinations are: 
48 33 53 31 28 34 51 52 7 18 4 37 num dests 12 simtime 5110 source 25


Pid 17563 Destinations are: 
26 22 18 56 43 37 0 60 6 53 21 61 num dests 12 simtime 5140 source 15


Pid 17587 Destinations are: 
2 47 28 3 13 35 19 36 43 46 62 37 num dests 12 simtime 5150 source 31


Pid 17677 Destinations are: 
20 57 19 27 35 50 23 60 34 49 45 42 num dests 12 simtime 5180 source 9


Pid 17706 Destinations are: 
40 57 43 25 59 53 27 23 49 6 48 35 num dests 12 simtime 5190 source 13


Pid 17762 Destinations are: 
9 31 34 59 63 8 48 53 21 56 38 35 num dests 12 simtime 5210 source 2


Pid 17800 Destinations are: 
23 8 46 4 16 19 1 5 57 31 14 49 num dests 12 simtime 5220 source 24


Pid 17828 Destinations are: 
26 25 61 41 12 5 37 48 59 63 56 60 num dests 12 simtime 5230 source 33


Pid 17863 Destinations are: 
13 56 52 38 61 19 18 59 23 39 27 5 num dests 12 simtime 5240 source 0


Pid 17898 Destinations are: 
56 3 59 27 11 22 23 50 30 15 21 39 num dests 12 simtime 5250 source 6


Pid 17931 Destinations are: 
53 50 43 38 12 28 30 36 62 35 2 19 num dests 12 simtime 5260 source 42


Pid 17997 Destinations are: 
17 50 1 32 52 9 51 28 2 24 20 44 num dests 12 simtime 5280 source 7


Pid 18028 Destinations are: 
31 46 16 35 0 38 24 37 42 18 60 33 num dests 12 simtime 5290 source 52


Pid 18077 Destinations are: 
34 50 25 55 43 20 62 36 51 7 47 3 num dests 12 simtime 5310 source 53


Pid 18104 Destinations are: 
55 43 22 0 14 4 33 3 15 49 17 16 num dests 12 simtime 5320 source 44


Pid 18194 Destinations are: 
47 42 59 27 55 6 25 48 15 28 51 7 num dests 12 simtime 5350 source 44


Pid 18221 Destinations are: 
50 63 40 0 15 24 6 62 38 19 11 3 num dests 12 simtime 5360 source 52


Pid 18257 Destinations are: 
9 46 57 28 21 15 26 50 48 53 29 4 num dests 12 simtime 5370 source 34


Pid 18296 Destinations are: 
8 27 36 58 5 11 41 12 13 23 19 61 num dests 12 simtime 5380 source 44


Pid 18328 Destinations are: 
43 34 3 1 35 40 50 2 58 44 49 7 num dests 12 simtime 5390 source 27


Pid 18366 Destinations are: 
17 41 11 59 60 47 31 34 55 46 1 20 num dests 12 simtime 5400 source 37


Pid 18442 Destinations are: 
18 50 48 41 0 4 2 5 62 44 26 47 num dests 12 simtime 5420 source 59


Pid 18477 Destinations are: 
59 39 48 9 26 25 35 36 32 12 45 28 num dests 12 simtime 5430 source 20


Pid 18510 Destinations are: 
49 39 48 56 52 15 46 33 60 17 62 4 num dests 12 simtime 5440 source 14


Pid 18547 Destinations are: 
35 28 41 20 39 40 14 58 50 51 17 63 num dests 12 simtime 5450 source 2


Pid 18582 Destinations are: 
24 46 39 29 37 35 28 52 54 43 26 40 num dests 12 simtime 5460 source 60


Pid 18615 Destinations are: 
3 42 16 30 39 59 33 56 12 41 52 17 num dests 12 simtime 5470 source 55


Pid 18706 Destinations are: 
63 49 53 40 29 50 41 27 14 31 12 62 num dests 12 simtime 5500 source 33


Pid 18773 Destinations are: 
35 57 45 16 38 58 30 10 8 23 32 21 num dests 12 simtime 5520 source 46


Pid 18812 Destinations are: 
39 26 56 13 16 37 29 52 18 30 11 49 num dests 12 simtime 5530 source 34


Pid 18878 Destinations are: 
50 62 20 25 48 46 61 0 8 4 17 47 num dests 12 simtime 5550 source 12


Pid 18911 Destinations are: 
51 35 25 49 47 52 21 3 12 20 18 57 num dests 12 simtime 5560 source 32


Pid 18931 Destinations are: 
20 23 5 52 39 36 40 45 49 41 33 6 num dests 12 simtime 5570 source 19


Pid 18959 Destinations are: 
38 5 15 33 61 13 0 29 22 44 30 48 num dests 12 simtime 5580 source 53


Pid 19048 Destinations are: 
47 10 11 63 28 48 37 53 24 55 9 58 num dests 12 simtime 5610 source 5


Pid 19070 Destinations are: 
19 9 4 0 24 41 15 17 33 32 46 27 num dests 12 simtime 5620 source 31


Pid 19102 Destinations are: 
47 42 34 50 59 10 4 60 36 52 2 43 num dests 12 simtime 5630 source 37


Pid 19144 Destinations are: 
41 5 1 3 14 63 50 13 31 23 62 17 num dests 12 simtime 5640 source 45


Pid 19173 Destinations are: 
29 27 32 37 2 6 47 57 23 1 35 38 num dests 12 simtime 5650 source 14


Pid 19281 Destinations are: 
14 39 63 24 37 36 55 50 34 58 57 1 num dests 12 simtime 5680 source 56


Pid 19344 Destinations are: 
6 44 43 47 37 16 56 22 0 5 48 62 num dests 12 simtime 5700 source 12


Pid 19376 Destinations are: 
59 15 49 28 8 45 16 50 55 36 27 37 num dests 12 simtime 5710 source 40


Pid 19406 Destinations are: 
47 8 9 20 63 23 28 41 12 36 38 46 num dests 12 simtime 5720 source 45


Pid 19435 Destinations are: 
5 48 16 6 44 3 61 26 2 10 40 52 num dests 12 simtime 5730 source 15


Pid 19466 Destinations are: 
60 58 7 54 31 17 32 11 62 15 45 0 num dests 12 simtime 5740 source 42


Pid 19543 Destinations are: 
55 1 29 43 30 40 38 33 18 58 45 26 num dests 12 simtime 5770 source 28


Pid 19569 Destinations are: 
17 56 43 59 60 44 13 63 47 11 15 57 num dests 12 simtime 5780 source 37


Pid 19602 Destinations are: 
33 30 39 27 29 37 12 43 35 36 21 20 num dests 12 simtime 5790 source 54


Pid 19636 Destinations are: 
62 21 56 63 32 48 4 34 59 24 31 19 num dests 12 simtime 5800 source 10


Pid 19668 Destinations are: 
2 54 6 49 62 19 52 31 51 57 34 16 num dests 12 simtime 5810 source 24


Pid 19700 Destinations are: 
12 62 47 2 4 14 19 56 53 5 10 41 num dests 12 simtime 5820 source 7


Pid 19735 Destinations are: 
29 53 6 48 33 50 28 16 54 51 8 15 num dests 12 simtime 5830 source 45


Pid 19773 Destinations are: 
59 22 11 14 24 35 17 58 63 34 47 10 num dests 12 simtime 5840 source 39


Pid 19862 Destinations are: 
9 42 4 57 59 40 16 62 60 7 25 38 num dests 12 simtime 5870 source 48


Pid 19896 Destinations are: 
20 28 25 12 56 35 15 27 60 10 58 59 num dests 12 simtime 5880 source 1


Pid 19931 Destinations are: 
61 43 9 47 54 59 6 28 37 32 19 23 num dests 12 simtime 5890 source 20


Pid 19956 Destinations are: 
2 50 58 6 33 59 15 38 16 18 31 19 num dests 12 simtime 5900 source 13


Pid 20017 Destinations are: 
59 63 39 9 52 11 49 54 19 38 1 0 num dests 12 simtime 5920 source 20


Pid 20034 Destinations are: 
0 14 44 43 54 53 47 27 21 23 31 52 num dests 12 simtime 5930 source 32


Pid 20059 Destinations are: 
13 63 33 12 37 16 26 52 10 35 20 54 num dests 12 simtime 5940 source 30


Pid 20117 Destinations are: 
7 38 18 28 31 4 12 2 63 45 6 15 num dests 12 simtime 5960 source 37


Pid 20150 Destinations are: 
35 37 42 5 30 20 48 60 33 51 44 57 num dests 12 simtime 5970 source 58


Pid 20188 Destinations are: 
2 0 60 61 51 31 37 28 52 44 39 8 num dests 12 simtime 5980 source 7


Pid 20220 Destinations are: 
13 31 43 27 7 28 56 57 6 44 10 26 num dests 12 simtime 5990 source 46
Class 0:
Packet latency average = 75.1134
	minimum = 2
	maximum = 1932
Network latency average = 65.3146
	minimum = 2
	maximum = 1932
Slowest packet = 12388
Flit latency average = 70.6818
	minimum = 2
	maximum = 1932
Slowest flit = 12388
Fragmentation average = 0
	minimum = 0
	maximum = 0
Injected packet rate average = 0.0239792
	minimum = 0.0166667 (at node 59)
	maximum = 0.03 (at node 3)
Accepted packet rate average = 0.0373906
	minimum = 0.0296667 (at node 18)
	maximum = 0.0443333 (at node 14)
Injected flit rate average = 0.0239792
	minimum = 0.0166667 (at node 59)
	maximum = 0.03 (at node 3)
Accepted flit rate average= 0.0373906
	minimum = 0.0296667 (at node 18)
	maximum = 0.0443333 (at node 14)
Injected packet length average = 1
Accepted packet length average = 1
Total in-flight flits = 210 (210 measured)
latency change    = 0.0509737
throughput change = 0.0344756


Pid 20261 Destinations are: 
15 42 47 20 4 17 57 8 13 50 3 29 num dests 12 simtime 6000 source 41


Pid 20296 Destinations are: 
18 47 57 53 60 6 29 17 49 38 0 32 num dests 12 simtime 6010 source 50


Pid 20331 Destinations are: 
50 24 51 44 36 19 60 45 30 3 39 46 num dests 12 simtime 6020 source 59


Pid 20362 Destinations are: 
35 26 52 40 3 42 48 29 19 59 7 63 num dests 12 simtime 6030 source 36


Pid 20382 Destinations are: 
8 7 10 46 4 28 36 34 9 31 41 32 num dests 12 simtime 6040 source 40


Pid 20417 Destinations are: 
15 46 48 61 8 30 14 6 21 55 40 0 num dests 12 simtime 6050 source 44


Pid 20461 Destinations are: 
51 25 52 45 37 20 60 46 31 3 40 47 num dests 12 simtime 6060 source 19


Pid 20522 Destinations are: 
40 15 8 49 7 39 36 17 24 18 12 5 num dests 12 simtime 6080 source 16


Pid 20562 Destinations are: 
46 35 41 2 31 32 12 15 16 5 52 1 num dests 12 simtime 6090 source 43


Pid 20593 Destinations are: 
4 53 43 16 42 34 47 18 7 55 14 61 num dests 12 simtime 6100 source 60


Pid 20627 Destinations are: 
35 27 7 13 37 30 29 0 59 52 34 44 num dests 12 simtime 6110 source 36


Pid 20657 Destinations are: 
30 43 24 50 16 33 2 60 11 48 25 34 num dests 12 simtime 6120 source 54


Pid 20688 Destinations are: 
35 57 0 29 4 5 55 16 60 11 59 22 num dests 12 simtime 6130 source 26


Pid 20719 Destinations are: 
7 62 23 10 20 5 12 4 40 44 3 2 num dests 12 simtime 6140 source 14


Pid 20826 Destinations are: 
44 59 31 63 15 43 13 45 27 29 22 30 num dests 12 simtime 6170 source 0


Pid 20854 Destinations are: 
18 2 26 21 8 43 57 39 7 33 9 15 num dests 12 simtime 6180 source 36


Pid 20871 Destinations are: 
41 27 63 45 48 58 55 10 34 1 24 7 num dests 12 simtime 6190 source 53


Pid 20908 Destinations are: 
41 11 36 53 30 37 14 28 51 0 61 23 num dests 12 simtime 6200 source 29


Pid 20948 Destinations are: 
52 62 34 1 30 48 37 4 29 31 50 42 num dests 12 simtime 6210 source 24


Pid 20988 Destinations are: 
13 11 5 52 33 10 2 55 54 59 14 8 num dests 12 simtime 6220 source 0


Pid 21024 Destinations are: 
46 26 27 31 2 56 25 11 20 43 17 40 num dests 12 simtime 6230 source 53


Pid 21057 Destinations are: 
4 56 63 50 24 31 55 36 26 14 15 62 num dests 12 simtime 6240 source 33


Pid 21088 Destinations are: 
7 23 9 63 17 49 3 0 27 60 44 20 num dests 12 simtime 6250 source 36


Pid 21121 Destinations are: 
29 44 52 25 13 0 27 23 50 47 6 33 num dests 12 simtime 6260 source 8


Pid 21149 Destinations are: 
17 11 36 0 38 6 54 15 3 48 9 50 num dests 12 simtime 6270 source 39


Pid 21176 Destinations are: 
14 52 26 53 59 17 39 43 58 5 60 40 num dests 12 simtime 6280 source 12


Pid 21203 Destinations are: 
11 57 48 58 60 44 45 28 41 1 35 2 num dests 12 simtime 6290 source 13


Pid 21282 Destinations are: 
23 32 48 36 13 59 16 53 26 10 17 61 num dests 12 simtime 6310 source 3


Pid 21314 Destinations are: 
47 25 32 35 30 34 49 43 38 50 58 46 num dests 12 simtime 6320 source 29


Pid 21356 Destinations are: 
44 52 31 0 37 45 6 34 54 61 43 29 num dests 12 simtime 6330 source 36


Pid 21393 Destinations are: 
56 33 47 42 34 58 18 3 26 27 53 12 num dests 12 simtime 6340 source 57


Pid 21484 Destinations are: 
31 9 58 38 3 4 17 14 22 6 41 34 num dests 12 simtime 6360 source 19


Pid 21516 Destinations are: 
57 16 3 44 7 45 8 63 29 62 55 18 num dests 12 simtime 6370 source 21


Pid 21602 Destinations are: 
39 53 2 43 38 8 12 55 5 13 33 9 num dests 12 simtime 6400 source 42


Pid 21628 Destinations are: 
62 15 20 19 16 37 43 6 22 39 10 4 num dests 12 simtime 6410 source 7


Pid 21654 Destinations are: 
40 21 28 31 63 47 49 12 4 25 32 24 num dests 12 simtime 6420 source 44


Pid 21717 Destinations are: 
48 53 56 13 26 38 11 19 29 5 44 4 num dests 12 simtime 6440 source 28


Pid 21803 Destinations are: 
10 62 42 7 31 22 23 9 54 40 43 53 num dests 12 simtime 6460 source 61


Pid 21841 Destinations are: 
25 40 6 62 22 46 15 37 1 28 42 36 num dests 12 simtime 6470 source 24


Pid 21885 Destinations are: 
25 40 6 62 23 46 16 37 1 28 42 36 num dests 12 simtime 6480 source 14


Pid 21959 Destinations are: 
22 15 29 54 17 25 60 14 46 34 53 45 num dests 12 simtime 6500 source 61


Pid 21995 Destinations are: 
23 20 12 19 33 16 13 38 4 29 57 49 num dests 12 simtime 6510 source 14


Pid 22064 Destinations are: 
20 26 40 25 63 46 6 56 1 49 51 36 num dests 12 simtime 6530 source 24


Pid 22097 Destinations are: 
13 37 7 63 5 36 42 58 59 46 22 9 num dests 12 simtime 6540 source 62


Pid 22141 Destinations are: 
33 4 62 57 6 15 38 52 40 30 7 32 num dests 12 simtime 6550 source 8


Pid 22177 Destinations are: 
1 57 18 54 22 59 5 6 8 26 11 3 num dests 12 simtime 6560 source 60


Pid 22215 Destinations are: 
18 11 52 15 59 21 45 41 54 27 35 9 num dests 12 simtime 6570 source 47


Pid 22253 Destinations are: 
22 58 55 57 50 4 18 43 21 60 33 32 num dests 12 simtime 6580 source 63


Pid 22285 Destinations are: 
35 12 25 59 38 54 11 20 49 50 8 51 num dests 12 simtime 6590 source 56


Pid 22346 Destinations are: 
4 36 50 34 44 53 8 5 30 11 24 57 num dests 12 simtime 6610 source 63


Pid 22379 Destinations are: 
51 13 34 14 1 37 53 6 5 54 61 30 num dests 12 simtime 6620 source 55


Pid 22408 Destinations are: 
0 1 17 36 44 5 57 25 16 33 62 12 num dests 12 simtime 6630 source 63


Pid 22445 Destinations are: 
60 59 46 13 27 44 62 12 36 18 37 52 num dests 12 simtime 6640 source 26


Pid 22484 Destinations are: 
16 58 12 47 26 22 23 21 45 33 17 52 num dests 12 simtime 6650 source 61


Pid 22511 Destinations are: 
24 63 13 46 21 7 22 23 57 54 10 45 num dests 12 simtime 6660 source 1


Pid 22538 Destinations are: 
36 6 62 0 2 41 8 5 52 20 58 31 num dests 12 simtime 6670 source 30


Pid 22568 Destinations are: 
62 11 42 63 14 46 2 36 59 58 22 6 num dests 12 simtime 6680 source 8


Pid 22623 Destinations are: 
56 29 32 58 1 47 57 24 45 55 5 18 num dests 12 simtime 6700 source 33


Pid 22650 Destinations are: 
33 39 55 38 63 19 26 15 29 56 23 31 num dests 12 simtime 6710 source 41


Pid 22739 Destinations are: 
57 54 17 15 11 51 26 38 46 25 36 0 num dests 12 simtime 6740 source 16


Pid 22821 Destinations are: 
15 32 12 56 44 25 48 60 61 5 10 11 num dests 12 simtime 6770 source 16


Pid 22853 Destinations are: 
54 30 48 57 50 53 17 61 37 9 36 19 num dests 12 simtime 6780 source 34


Pid 22884 Destinations are: 
63 15 53 18 8 38 60 34 23 27 61 59 num dests 12 simtime 6790 source 58


Pid 22922 Destinations are: 
15 1 16 6 43 60 42 28 14 52 3 30 num dests 12 simtime 6800 source 27


Pid 22956 Destinations are: 
31 63 9 29 20 0 37 33 7 60 55 1 num dests 12 simtime 6810 source 57


Pid 22996 Destinations are: 
16 3 45 21 49 37 7 38 4 11 1 52 num dests 12 simtime 6820 source 32


Pid 23037 Destinations are: 
55 46 18 37 34 6 8 27 26 14 52 21 num dests 12 simtime 6830 source 56


Pid 23107 Destinations are: 
40 38 17 39 49 1 34 24 32 26 31 62 num dests 12 simtime 6850 source 50


Pid 23145 Destinations are: 
7 57 35 11 24 27 18 61 15 20 2 31 num dests 12 simtime 6860 source 52


Pid 23177 Destinations are: 
63 14 48 9 41 50 32 33 1 62 31 6 num dests 12 simtime 6870 source 26


Pid 23215 Destinations are: 
13 34 15 40 31 1 39 25 7 16 18 11 num dests 12 simtime 6880 source 54


Pid 23289 Destinations are: 
56 54 2 34 20 25 8 21 5 36 57 32 num dests 12 simtime 6900 source 18


Pid 23321 Destinations are: 
42 0 1 49 31 45 53 9 36 28 37 34 num dests 12 simtime 6910 source 39


Pid 23392 Destinations are: 
53 45 50 40 56 23 0 20 3 13 16 2 num dests 12 simtime 6930 source 7


Pid 23422 Destinations are: 
58 16 60 17 6 26 32 18 1 51 37 14 num dests 12 simtime 6940 source 45


Pid 23464 Destinations are: 
58 16 60 17 6 26 32 18 1 51 38 14 num dests 12 simtime 6950 source 35


Pid 23533 Destinations are: 
8 28 44 33 15 22 13 21 63 43 59 30 num dests 12 simtime 6970 source 17


Pid 23573 Destinations are: 
3 31 40 15 26 45 53 20 37 23 6 34 num dests 12 simtime 6980 source 49
Class 0:
Packet latency average = 94.9565
	minimum = 2
	maximum = 2993
Network latency average = 74.294
	minimum = 2
	maximum = 2993
Slowest packet = 12313
Flit latency average = 78.0864
	minimum = 2
	maximum = 2993
Slowest flit = 12313
Fragmentation average = 0
	minimum = 0
	maximum = 0
Injected packet rate average = 0.0242656
	minimum = 0.0155 (at node 62)
	maximum = 0.0305 (at node 27)
Accepted packet rate average = 0.0376992
	minimum = 0.0315 (at node 22)
	maximum = 0.0445 (at node 59)
Injected flit rate average = 0.0242656
	minimum = 0.0155 (at node 62)
	maximum = 0.0305 (at node 27)
Accepted flit rate average= 0.0376992
	minimum = 0.0315 (at node 22)
	maximum = 0.0445 (at node 59)
Injected packet length average = 1
Accepted packet length average = 1
Total in-flight flits = 223 (223 measured)
latency change    = 0.20897
throughput change = 0.00818568


Pid 23637 Destinations are: 
54 12 60 63 56 22 8 61 34 32 59 25 num dests 12 simtime 7000 source 11


Pid 23669 Destinations are: 
21 24 3 16 8 25 6 48 27 46 43 23 num dests 12 simtime 7010 source 41


Pid 23703 Destinations are: 
33 48 43 57 37 1 55 31 24 42 61 9 num dests 12 simtime 7020 source 13


Pid 23733 Destinations are: 
50 62 53 17 39 3 24 34 51 12 7 38 num dests 12 simtime 7030 source 52


Pid 23760 Destinations are: 
6 41 35 30 34 47 38 37 62 50 44 58 num dests 12 simtime 7040 source 12


Pid 23865 Destinations are: 
28 33 58 57 36 23 40 60 26 15 62 61 num dests 12 simtime 7070 source 21


Pid 23894 Destinations are: 
46 15 23 18 48 26 30 3 2 55 43 36 num dests 12 simtime 7080 source 58


Pid 23927 Destinations are: 
28 53 33 25 36 54 18 39 23 62 42 6 num dests 12 simtime 7090 source 30


Pid 24017 Destinations are: 
2 21 53 32 19 43 45 6 8 11 4 63 num dests 12 simtime 7120 source 55


Pid 24043 Destinations are: 
43 35 26 40 48 3 6 24 61 2 34 16 num dests 12 simtime 7130 source 54


Pid 24075 Destinations are: 
30 19 1 58 10 24 17 16 3 29 52 53 num dests 12 simtime 7140 source 50


Pid 24105 Destinations are: 
22 63 15 32 4 37 55 31 50 11 58 42 num dests 12 simtime 7150 source 35


Pid 24145 Destinations are: 
39 49 4 15 18 58 32 50 11 36 22 44 num dests 12 simtime 7160 source 1


Pid 24214 Destinations are: 
9 43 7 53 16 18 54 61 19 35 51 56 num dests 12 simtime 7180 source 28


Pid 24237 Destinations are: 
4 15 43 59 41 42 3 6 24 21 0 26 num dests 12 simtime 7190 source 17


Pid 24303 Destinations are: 
57 17 24 32 37 62 14 54 7 36 42 51 num dests 12 simtime 7210 source 55


Pid 24362 Destinations are: 
27 25 55 52 0 21 30 6 11 43 13 34 num dests 12 simtime 7230 source 33


Pid 24398 Destinations are: 
55 17 46 63 30 61 32 54 12 53 0 8 num dests 12 simtime 7240 source 44


Pid 24432 Destinations are: 
33 48 37 42 49 21 13 4 52 8 29 60 num dests 12 simtime 7250 source 17


Pid 24465 Destinations are: 
8 44 24 4 20 3 40 17 15 12 62 33 num dests 12 simtime 7260 source 36


Pid 24493 Destinations are: 
50 17 45 34 14 28 9 5 16 10 57 11 num dests 12 simtime 7270 source 35


Pid 24527 Destinations are: 
58 16 43 57 62 34 5 29 13 2 27 42 num dests 12 simtime 7280 source 20


Pid 24568 Destinations are: 
10 16 5 32 19 23 20 22 48 52 51 63 num dests 12 simtime 7290 source 17


Pid 24605 Destinations are: 
1 34 62 40 56 27 18 23 61 36 44 4 num dests 12 simtime 7300 source 58


Pid 24640 Destinations are: 
28 60 1 2 53 49 54 26 35 42 44 29 num dests 12 simtime 7310 source 46


Pid 24669 Destinations are: 
57 52 47 59 19 46 51 6 10 58 35 5 num dests 12 simtime 7320 source 37


Pid 24710 Destinations are: 
15 49 31 42 17 5 7 33 32 63 29 59 num dests 12 simtime 7330 source 23


Pid 24738 Destinations are: 
57 52 47 59 20 46 51 6 10 58 36 5 num dests 12 simtime 7340 source 17


Pid 24810 Destinations are: 
63 47 9 58 45 26 25 55 51 3 8 48 num dests 12 simtime 7360 source 15


Pid 24844 Destinations are: 
63 5 10 38 8 0 3 22 18 21 35 23 num dests 12 simtime 7370 source 14


Pid 24875 Destinations are: 
7 38 5 31 55 15 44 36 40 59 20 2 num dests 12 simtime 7380 source 10


Pid 24908 Destinations are: 
63 34 24 44 42 20 58 38 7 16 13 61 num dests 12 simtime 7390 source 41


Pid 24953 Destinations are: 
31 38 46 5 12 22 48 2 59 42 35 43 num dests 12 simtime 7400 source 61


Pid 24996 Destinations are: 
9 55 47 48 27 19 49 29 22 23 25 57 num dests 12 simtime 7410 source 26


Pid 25033 Destinations are: 
51 41 8 39 19 5 34 22 47 62 59 21 num dests 12 simtime 7420 source 45


Pid 25076 Destinations are: 
34 37 21 14 10 1 54 12 9 50 31 32 num dests 12 simtime 7430 source 19


Pid 25123 Destinations are: 
13 53 63 17 58 25 31 11 8 21 50 10 num dests 12 simtime 7440 source 33


Pid 25159 Destinations are: 
5 12 50 10 6 20 18 1 24 16 17 8 num dests 12 simtime 7450 source 53


Pid 25189 Destinations are: 
19 24 42 4 38 20 36 23 3 18 22 26 num dests 12 simtime 7460 source 25


Pid 25217 Destinations are: 
46 37 15 33 10 30 51 36 47 52 19 43 num dests 12 simtime 7470 source 39


Pid 25254 Destinations are: 
29 22 44 33 53 50 55 2 32 17 23 56 num dests 12 simtime 7480 source 54


Pid 25322 Destinations are: 
6 13 51 11 7 21 19 1 25 17 18 9 num dests 12 simtime 7500 source 3


Pid 25359 Destinations are: 
51 2 9 41 61 52 25 12 53 16 38 10 num dests 12 simtime 7510 source 11


Pid 25450 Destinations are: 
31 8 14 1 25 46 23 5 32 9 50 52 num dests 12 simtime 7540 source 4


Pid 25480 Destinations are: 
31 18 33 48 26 60 49 38 32 56 2 61 num dests 12 simtime 7550 source 29


Pid 25522 Destinations are: 
46 4 48 53 51 63 28 27 60 1 2 16 num dests 12 simtime 7560 source 52


Pid 25562 Destinations are: 
34 48 21 18 47 0 38 31 1 36 29 6 num dests 12 simtime 7570 source 58


Pid 25602 Destinations are: 
34 49 21 18 47 0 38 31 1 36 29 6 num dests 12 simtime 7580 source 48


Pid 25634 Destinations are: 
23 28 58 38 42 10 18 47 59 19 44 41 num dests 12 simtime 7590 source 43


Pid 25667 Destinations are: 
49 57 62 0 35 53 22 31 17 5 51 63 num dests 12 simtime 7600 source 58


Pid 25700 Destinations are: 
37 35 55 39 31 60 25 16 57 27 61 38 num dests 12 simtime 7610 source 43


Pid 25731 Destinations are: 
17 15 21 36 9 62 56 58 4 14 16 37 num dests 12 simtime 7620 source 24


Pid 25767 Destinations are: 
52 60 18 47 20 33 37 59 40 46 24 22 num dests 12 simtime 7630 source 5


Pid 25801 Destinations are: 
23 33 9 2 46 26 59 49 10 56 41 16 num dests 12 simtime 7640 source 44


Pid 25832 Destinations are: 
16 20 38 14 51 37 50 4 21 58 11 35 num dests 12 simtime 7650 source 22


Pid 25925 Destinations are: 
44 28 24 23 15 20 58 36 5 43 26 16 num dests 12 simtime 7680 source 2


Pid 25956 Destinations are: 
54 40 28 34 24 63 36 19 8 37 46 6 num dests 12 simtime 7690 source 14


Pid 25989 Destinations are: 
61 9 47 60 12 48 58 10 6 42 4 55 num dests 12 simtime 7700 source 30


Pid 26067 Destinations are: 
10 7 23 22 25 12 58 38 47 19 13 46 num dests 12 simtime 7720 source 29


Pid 26097 Destinations are: 
0 45 49 32 1 47 38 36 4 52 58 21 num dests 12 simtime 7730 source 11


Pid 26162 Destinations are: 
29 46 11 27 58 32 17 61 43 39 48 38 num dests 12 simtime 7750 source 14


Pid 26194 Destinations are: 
38 35 3 13 28 6 9 37 14 51 46 31 num dests 12 simtime 7760 source 20


Pid 26228 Destinations are: 
32 15 23 62 30 4 51 0 43 31 14 17 num dests 12 simtime 7770 source 7


Pid 26267 Destinations are: 
5 50 20 26 4 39 60 45 15 9 44 10 num dests 12 simtime 7780 source 59


Pid 26308 Destinations are: 
34 58 33 56 44 59 27 57 49 50 22 29 num dests 12 simtime 7790 source 61


Pid 26346 Destinations are: 
44 19 35 33 52 57 25 54 60 22 30 56 num dests 12 simtime 7800 source 37


Pid 26389 Destinations are: 
1 28 59 7 53 17 32 19 42 49 18 10 num dests 12 simtime 7810 source 22


Pid 26427 Destinations are: 
1 22 41 32 44 29 25 49 43 54 31 2 num dests 12 simtime 7820 source 8


Pid 26459 Destinations are: 
46 5 32 24 54 21 58 61 59 11 12 38 num dests 12 simtime 7830 source 29


Pid 26502 Destinations are: 
56 48 21 63 27 2 46 19 52 1 14 6 num dests 12 simtime 7840 source 34


Pid 26535 Destinations are: 
4 46 49 55 16 15 53 3 5 29 22 24 num dests 12 simtime 7850 source 54


Pid 26573 Destinations are: 
24 52 55 40 2 10 51 39 27 35 21 47 num dests 12 simtime 7860 source 48


Pid 26613 Destinations are: 
43 29 46 22 7 48 17 25 51 5 36 56 num dests 12 simtime 7870 source 24


Pid 26649 Destinations are: 
1 4 42 30 14 43 53 50 26 59 11 44 num dests 12 simtime 7880 source 48


Pid 26678 Destinations are: 
30 62 22 41 33 32 45 21 55 20 38 44 num dests 12 simtime 7890 source 42


Pid 26747 Destinations are: 
22 15 4 51 40 27 2 61 55 50 35 18 num dests 12 simtime 7910 source 45


Pid 26779 Destinations are: 
20 14 29 58 23 19 0 17 46 34 63 12 num dests 12 simtime 7920 source 53


Pid 26808 Destinations are: 
31 62 23 42 34 33 45 22 55 21 39 44 num dests 12 simtime 7930 source 2


Pid 26864 Destinations are: 
34 43 48 24 22 9 8 4 5 31 15 17 num dests 12 simtime 7950 source 50


Pid 26894 Destinations are: 
21 4 16 19 7 38 14 11 29 42 32 53 num dests 12 simtime 7960 source 49


Pid 26922 Destinations are: 
49 60 12 57 9 4 26 36 52 6 13 7 num dests 12 simtime 7970 source 16


Pid 26957 Destinations are: 
15 41 24 25 53 45 55 29 9 48 19 38 num dests 12 simtime 7980 source 12


Pid 26983 Destinations are: 
29 56 47 25 46 55 58 8 15 14 41 27 num dests 12 simtime 7990 source 17
Class 0:
Packet latency average = 100.342
	minimum = 2
	maximum = 3067
Network latency average = 75.767
	minimum = 2
	maximum = 2993
Slowest packet = 12313
Flit latency average = 78.7742
	minimum = 2
	maximum = 2993
Slowest flit = 12313
Fragmentation average = 0
	minimum = 0
	maximum = 0
Injected packet rate average = 0.0243188
	minimum = 0.0152 (at node 62)
	maximum = 0.0296 (at node 27)
Accepted packet rate average = 0.0377062
	minimum = 0.0324 (at node 4)
	maximum = 0.0434 (at node 37)
Injected flit rate average = 0.0243188
	minimum = 0.0152 (at node 62)
	maximum = 0.0296 (at node 27)
Accepted flit rate average= 0.0377062
	minimum = 0.0324 (at node 4)
	maximum = 0.0434 (at node 37)
Injected packet length average = 1
Accepted packet length average = 1
Total in-flight flits = 256 (256 measured)
latency change    = 0.0536701
throughput change = 0.000186474


Pid 27026 Destinations are: 
7 54 35 41 18 31 5 23 29 63 37 43 num dests 12 simtime 8000 source 11


Pid 27066 Destinations are: 
11 1 53 37 9 35 50 15 62 30 63 2 num dests 12 simtime 8010 source 34


Pid 27170 Destinations are: 
61 26 4 24 38 44 20 34 35 7 6 21 num dests 12 simtime 8040 source 43


Pid 27207 Destinations are: 
43 17 42 59 33 49 13 19 62 35 24 26 num dests 12 simtime 8050 source 7


Pid 27240 Destinations are: 
38 47 42 35 43 33 16 59 0 48 5 55 num dests 12 simtime 8060 source 19


Pid 27272 Destinations are: 
41 27 14 24 4 8 51 12 40 10 6 15 num dests 12 simtime 8070 source 53


Pid 27307 Destinations are: 
17 12 25 38 61 52 49 31 22 58 63 29 num dests 12 simtime 8080 source 42


Pid 27346 Destinations are: 
9 33 8 38 23 12 10 56 59 48 58 34 num dests 12 simtime 8090 source 39


Pid 27380 Destinations are: 
31 61 28 8 46 7 51 52 44 11 43 33 num dests 12 simtime 8100 source 25


Pid 27417 Destinations are: 
31 19 22 37 25 28 23 24 46 15 44 48 num dests 12 simtime 8110 source 26


Pid 27454 Destinations are: 
11 23 22 4 26 51 52 44 34 16 3 9 num dests 12 simtime 8120 source 42


Pid 27501 Destinations are: 
31 20 23 37 26 28 24 25 46 16 44 48 num dests 12 simtime 8130 source 6


Pid 27577 Destinations are: 
16 54 61 27 34 51 3 29 36 57 56 0 num dests 12 simtime 8150 source 19


Pid 27613 Destinations are: 
14 43 15 1 0 36 58 52 17 44 29 33 num dests 12 simtime 8160 source 27


Pid 27648 Destinations are: 
55 21 59 32 58 56 11 5 48 39 15 60 num dests 12 simtime 8170 source 35


Pid 27682 Destinations are: 
2 40 5 50 3 20 33 8 42 49 7 48 num dests 12 simtime 8180 source 37


Pid 27721 Destinations are: 
35 60 21 50 18 11 36 2 59 57 15 55 num dests 12 simtime 8190 source 32


Pid 27758 Destinations are: 
26 33 63 16 12 14 24 48 34 54 39 60 num dests 12 simtime 8200 source 23


Pid 27785 Destinations are: 
17 15 60 45 46 22 8 6 40 47 41 42 num dests 12 simtime 8210 source 10


Pid 27820 Destinations are: 
62 54 38 57 50 29 12 58 45 19 41 49 num dests 12 simtime 8220 source 46


Pid 27875 Destinations are: 
4 6 31 56 46 40 49 53 39 5 1 42 num dests 12 simtime 8240 source 29


Pid 27902 Destinations are: 
14 12 56 44 28 32 61 58 4 21 52 42 num dests 12 simtime 8250 source 39


Pid 27933 Destinations are: 
62 54 39 57 50 30 13 58 46 20 42 49 num dests 12 simtime 8260 source 6


Pid 27961 Destinations are: 
47 32 41 21 17 58 36 61 34 9 7 16 num dests 12 simtime 8270 source 50


Pid 27997 Destinations are: 
56 26 4 28 12 41 24 14 30 53 35 62 num dests 12 simtime 8280 source 31


Pid 28026 Destinations are: 
46 29 53 20 12 43 55 8 57 4 22 6 num dests 12 simtime 8290 source 54


Pid 28063 Destinations are: 
7 38 28 33 36 11 44 59 5 23 20 27 num dests 12 simtime 8300 source 41


Pid 28094 Destinations are: 
35 38 62 28 3 5 49 41 13 10 26 51 num dests 12 simtime 8310 source 2


Pid 28126 Destinations are: 
38 19 37 51 57 30 53 33 29 12 49 6 num dests 12 simtime 8320 source 23


Pid 28169 Destinations are: 
18 8 38 44 46 14 1 26 11 5 4 37 num dests 12 simtime 8330 source 59


Pid 28202 Destinations are: 
52 59 21 25 44 11 35 61 49 9 50 1 num dests 12 simtime 8340 source 28


Pid 28241 Destinations are: 
5 36 43 22 6 37 32 41 42 23 18 55 num dests 12 simtime 8350 source 10


Pid 28308 Destinations are: 
25 43 34 23 9 58 37 7 45 52 46 39 num dests 12 simtime 8370 source 48


Pid 28336 Destinations are: 
1 18 33 42 60 56 5 38 14 12 23 48 num dests 12 simtime 8380 source 27


Pid 28358 Destinations are: 
16 47 2 63 38 30 8 5 18 33 36 55 num dests 12 simtime 8390 source 20


Pid 28393 Destinations are: 
38 30 51 34 15 59 0 25 2 50 42 49 num dests 12 simtime 8400 source 12


Pid 28468 Destinations are: 
21 31 3 34 7 18 50 11 54 12 45 42 num dests 12 simtime 8420 source 22


Pid 28500 Destinations are: 
0 4 36 62 56 60 31 34 35 16 12 25 num dests 12 simtime 8430 source 10


Pid 28536 Destinations are: 
27 51 30 21 26 60 9 40 8 1 18 61 num dests 12 simtime 8440 source 53


Pid 28602 Destinations are: 
58 2 18 24 60 45 35 30 11 48 1 31 num dests 12 simtime 8460 source 13


Pid 28633 Destinations are: 
58 2 18 24 60 45 35 30 12 48 1 31 num dests 12 simtime 8470 source 3


Pid 28703 Destinations are: 
13 27 51 59 34 20 9 37 23 6 44 22 num dests 12 simtime 8490 source 28


Pid 28741 Destinations are: 
29 61 8 18 31 21 14 5 38 50 40 22 num dests 12 simtime 8500 source 28


Pid 28811 Destinations are: 
35 37 14 48 12 63 34 49 57 39 44 42 num dests 12 simtime 8520 source 32


Pid 28872 Destinations are: 
46 21 25 8 54 3 0 7 59 57 34 50 num dests 12 simtime 8540 source 40


Pid 28900 Destinations are: 
3 37 18 24 41 52 39 9 21 12 59 14 num dests 12 simtime 8550 source 4


Pid 28932 Destinations are: 
25 62 24 22 52 21 55 27 26 35 63 11 num dests 12 simtime 8560 source 32


Pid 28971 Destinations are: 
57 10 13 56 34 54 19 3 6 49 20 38 num dests 12 simtime 8570 source 35


Pid 29007 Destinations are: 
53 25 11 2 33 31 13 19 7 59 41 4 num dests 12 simtime 8580 source 50


Pid 29077 Destinations are: 
6 38 3 47 62 51 17 43 42 1 44 58 num dests 12 simtime 8600 source 26


Pid 29115 Destinations are: 
15 42 61 11 6 31 41 20 21 53 17 2 num dests 12 simtime 8610 source 54


[...]


Pid 84438 Destinations are: 
1 39 3 5 43 44 29 20 54 25 38 24 num dests 12 simtime 25510 source 57


Pid 84466 Destinations are: 
20 39 53 60 51 58 52 29 24 35 18 36 num dests 12 simtime 25520 source 8


Pid 84521 Destinations are: 
44 35 46 13 43 33 61 6 15 39 60 32 num dests 12 simtime 25540 source 23


Pid 84554 Destinations are: 
43 44 48 14 49 11 59 31 24 63 42 19 num dests 12 simtime 25550 source 27


Pid 84624 Destinations are: 
14 28 62 16 10 0 2 24 52 57 12 15 num dests 12 simtime 25580 source 30


Pid 84658 Destinations are: 
6 24 31 54 36 52 22 8 30 17 53 15 num dests 12 simtime 25590 source 39


Pid 84686 Destinations are: 
15 29 62 17 11 0 2 25 52 57 13 16 num dests 12 simtime 25600 source 10


Pid 84721 Destinations are: 
52 33 10 61 12 5 44 24 11 6 21 37 num dests 12 simtime 25610 source 1


Pid 84753 Destinations are: 
32 51 45 34 33 3 38 15 18 5 53 58 num dests 12 simtime 25620 source 47


Pid 84810 Destinations are: 
36 24 4 21 51 25 6 37 27 32 56 42 num dests 12 simtime 25640 source 17


Pid 84874 Destinations are: 
53 25 1 33 50 44 16 52 32 57 35 20 num dests 12 simtime 25660 source 41


Pid 84901 Destinations are: 
46 18 58 36 22 13 61 63 17 48 28 52 num dests 12 simtime 25670 source 23


Pid 84936 Destinations are: 
9 55 6 13 60 42 35 40 17 36 33 26 num dests 12 simtime 25680 source 54


Pid 84967 Destinations are: 
12 3 62 1 48 32 58 10 2 22 39 35 num dests 12 simtime 25690 source 46


Pid 85011 Destinations are: 
4 21 20 6 28 22 15 24 42 30 17 13 num dests 12 simtime 25700 source 49


Pid 85045 Destinations are: 
61 45 8 1 42 41 62 4 29 46 52 56 num dests 12 simtime 25710 source 40


Pid 85076 Destinations are: 
23 20 15 10 45 9 27 29 58 4 63 8 num dests 12 simtime 25720 source 41


Pid 85116 Destinations are: 
27 25 51 19 26 43 35 3 30 45 2 57 num dests 12 simtime 25730 source 28


Pid 85154 Destinations are: 
18 29 41 15 63 1 48 42 55 12 61 16 num dests 12 simtime 25740 source 43


Pid 85198 Destinations are: 
56 34 27 35 59 36 25 24 49 11 63 19 num dests 12 simtime 25750 source 3


Pid 85235 Destinations are: 
59 51 35 2 58 20 44 55 16 6 25 28 num dests 12 simtime 25760 source 11


Pid 85273 Destinations are: 
8 22 40 5 56 3 2 47 18 51 61 48 num dests 12 simtime 25770 source 54


Pid 85311 Destinations are: 
61 8 12 6 53 41 36 57 59 56 51 32 num dests 12 simtime 25780 source 22


Pid 85342 Destinations are: 
10 50 17 53 2 35 9 63 19 43 29 42 num dests 12 simtime 25790 source 11


Pid 85372 Destinations are: 
47 57 24 48 37 52 26 59 29 13 45 51 num dests 12 simtime 25800 source 21


Pid 85407 Destinations are: 
12 44 54 48 15 60 19 3 38 59 52 2 num dests 12 simtime 25810 source 18


Pid 85434 Destinations are: 
26 8 59 61 0 35 13 7 57 10 36 29 num dests 12 simtime 25820 source 30


Pid 85487 Destinations are: 
1 26 45 12 47 52 5 18 43 40 16 6 num dests 12 simtime 25840 source 19


Pid 85594 Destinations are: 
52 51 54 2 59 45 7 49 58 61 44 37 num dests 12 simtime 25880 source 8


Pid 85625 Destinations are: 
14 23 8 2 58 53 60 38 42 52 37 32 num dests 12 simtime 25890 source 22


Pid 85652 Destinations are: 
62 39 46 50 31 5 14 51 23 29 7 20 num dests 12 simtime 25900 source 37


Pid 85714 Destinations are: 
31 41 37 12 48 23 43 9 50 45 18 16 num dests 12 simtime 25920 source 53


Pid 85746 Destinations are: 
28 27 7 29 22 9 30 12 19 18 41 17 num dests 12 simtime 25930 source 37


Pid 85809 Destinations are: 
11 36 22 41 10 9 17 44 27 7 60 32 num dests 12 simtime 25950 source 1


Pid 85908 Destinations are: 
27 19 18 52 5 59 12 55 63 37 36 0 num dests 12 simtime 25990 source 23
Class 0:
Remaining flits: 56518 56549 59165 59252 67679 67796 67862 68292 68326 69306 [...] (252 flits)
Measured flits: 56518 56549 59252 67679 71138 71173 (6 flits)


Pid 85936 Destinations are: 
3 39 26 16 59 25 22 31 57 29 63 32 num dests 12 simtime 26000 source 28


Pid 85963 Destinations are: 
60 27 34 51 30 1 53 41 25 54 10 22 num dests 12 simtime 26010 source 2


Pid 86005 Destinations are: 
1 34 44 47 51 50 23 11 0 4 14 16 num dests 12 simtime 26020 source 9


Pid 86050 Destinations are: 
57 55 39 11 23 51 15 31 25 46 38 43 num dests 12 simtime 26030 source 54


Pid 86085 Destinations are: 
20 61 36 24 8 15 43 12 41 6 11 18 num dests 12 simtime 26040 source 54


Pid 86153 Destinations are: 
48 62 40 26 35 60 2 7 25 56 29 38 num dests 12 simtime 26060 source 44


Pid 86222 Destinations are: 
34 37 25 9 12 52 39 16 2 36 50 28 num dests 12 simtime 26080 source 29


Pid 86256 Destinations are: 
1 17 38 54 45 24 51 36 6 4 16 21 num dests 12 simtime 26090 source 29


Pid 86294 Destinations are: 
25 53 33 0 55 23 57 3 20 51 15 35 num dests 12 simtime 26100 source 59


Pid 86330 Destinations are: 
51 62 57 46 24 16 37 49 12 36 3 17 num dests 12 simtime 26110 source 0


Pid 86365 Destinations are: 
54 31 35 5 42 9 34 56 50 19 25 18 num dests 12 simtime 26120 source 58


Pid 86403 Destinations are: 
53 24 16 45 18 21 48 57 22 62 35 3 num dests 12 simtime 26130 source 9


Pid 86444 Destinations are: 
60 7 3 13 45 9 33 8 53 4 30 22 num dests 12 simtime 26140 source 51


Pid 86485 Destinations are: 
62 56 10 43 9 39 29 0 46 52 57 7 num dests 12 simtime 26150 source 60


Pid 86518 Destinations are: 
9 11 58 39 34 8 60 16 51 14 62 21 num dests 12 simtime 26160 source 46


Pid 86547 Destinations are: 
60 14 38 6 25 27 59 62 15 5 18 8 num dests 12 simtime 26170 source 45


Pid 86575 Destinations are: 
60 7 3 14 46 9 34 8 53 4 31 23 num dests 12 simtime 26180 source 11


Pid 86609 Destinations are: 
54 18 33 55 41 4 50 61 56 51 6 49 num dests 12 simtime 26190 source 9


Pid 86640 Destinations are: 
42 30 44 47 39 31 16 54 52 19 34 13 num dests 12 simtime 26200 source 38


Pid 86735 Destinations are: 
37 4 15 61 17 29 32 43 49 10 35 58 num dests 12 simtime 26230 source 45


Pid 86835 Destinations are: 
28 31 16 35 14 4 46 47 37 60 52 6 num dests 12 simtime 26270 source 17


Pid 86857 Destinations are: 
26 35 51 36 23 8 19 52 1 18 44 38 num dests 12 simtime 26280 source 22


Pid 86974 Destinations are: 
47 40 16 8 6 34 56 38 32 39 2 61 num dests 12 simtime 26320 source 58


Pid 87027 Destinations are: 
8 3 15 23 33 57 18 54 47 31 58 44 num dests 12 simtime 26340 source 61


Pid 87061 Destinations are: 
48 44 53 55 58 4 11 25 22 28 5 21 num dests 12 simtime 26350 source 35


Pid 87096 Destinations are: 
12 37 49 29 5 60 40 38 33 15 35 3 num dests 12 simtime 26360 source 50


Pid 87198 Destinations are: 
10 40 47 44 25 0 6 19 60 23 48 38 num dests 12 simtime 26390 source 56


Pid 87247 Destinations are: 
11 31 20 58 12 38 45 22 29 14 43 15 num dests 12 simtime 26410 source 34


Pid 87280 Destinations are: 
22 5 26 47 52 30 62 28 2 4 43 48 num dests 12 simtime 26420 source 60


Pid 87319 Destinations are: 
0 40 54 50 49 1 12 7 18 15 43 31 num dests 12 simtime 26430 source 25


Pid 87362 Destinations are: 
58 55 62 54 26 28 31 38 53 6 39 12 num dests 12 simtime 26440 source 18


Pid 87428 Destinations are: 
16 2 44 41 19 50 33 38 1 40 37 36 num dests 12 simtime 26460 source 12


Pid 87455 Destinations are: 
52 33 43 19 20 62 60 46 63 14 28 54 num dests 12 simtime 26470 source 50


Pid 87487 Destinations are: 
6 37 46 24 43 28 14 2 39 16 5 29 num dests 12 simtime 26480 source 32


Pid 87559 Destinations are: 
52 34 44 19 21 62 60 47 63 14 29 54 num dests 12 simtime 26500 source 20


Pid 87589 Destinations are: 
43 37 19 1 62 17 30 31 53 47 59 50 num dests 12 simtime 26510 source 52


Pid 87623 Destinations are: 
28 8 57 18 3 48 50 32 45 51 16 11 num dests 12 simtime 26520 source 27


Pid 87658 Destinations are: 
15 26 59 55 49 3 54 46 24 58 39 9 num dests 12 simtime 26530 source 44


Pid 87731 Destinations are: 
20 36 21 5 11 32 31 22 26 44 51 28 num dests 12 simtime 26550 source 37


Pid 87757 Destinations are: 
46 13 18 35 37 32 31 62 59 57 26 47 num dests 12 simtime 26560 source 5


Pid 87795 Destinations are: 
22 39 17 9 12 53 63 0 16 7 10 34 num dests 12 simtime 26570 source 40


Pid 87831 Destinations are: 
30 60 5 58 0 49 20 34 42 40 63 41 num dests 12 simtime 26580 source 45


Pid 87863 Destinations are: 
57 55 27 20 49 23 58 15 19 26 7 14 num dests 12 simtime 26590 source 22


Pid 87890 Destinations are: 
35 13 25 23 62 22 58 2 37 47 40 41 num dests 12 simtime 26600 source 5


Pid 87940 Destinations are: 
47 63 10 14 27 24 21 16 26 57 56 7 num dests 12 simtime 26620 source 22


Pid 88002 Destinations are: 
32 31 44 45 2 10 14 15 18 55 60 48 num dests 12 simtime 26640 source 34


Pid 88034 Destinations are: 
7 59 12 17 25 16 50 57 18 45 2 22 num dests 12 simtime 26650 source 34


Pid 88064 Destinations are: 
25 48 37 63 17 27 56 44 14 47 9 24 num dests 12 simtime 26660 source 38


Pid 88103 Destinations are: 
29 63 11 47 56 57 4 41 5 60 37 21 num dests 12 simtime 26670 source 44


Pid 88134 Destinations are: 
60 59 4 38 14 12 34 26 15 54 40 53 num dests 12 simtime 26680 source 44


Pid 88166 Destinations are: 
21 5 14 1 4 13 0 25 60 39 45 34 num dests 12 simtime 26690 source 33


Pid 88205 Destinations are: 
24 50 26 4 8 20 11 36 16 3 6 32 num dests 12 simtime 26700 source 56


Pid 88229 Destinations are: 
53 7 44 22 15 3 1 35 16 19 25 4 num dests 12 simtime 26710 source 56


Pid 88251 Destinations are: 
36 58 34 1 25 27 56 0 50 4 17 8 num dests 12 simtime 26720 source 31


Pid 88276 Destinations are: 
57 17 34 33 9 59 23 1 29 19 16 48 num dests 12 simtime 26730 source 13


Pid 88337 Destinations are: 
3 24 20 1 54 29 18 57 16 41 30 46 num dests 12 simtime 26750 source 0


Pid 88363 Destinations are: 
63 45 55 60 13 14 4 8 29 42 41 44 num dests 12 simtime 26760 source 0


Pid 88393 Destinations are: 
14 7 39 50 21 63 51 31 57 12 24 30 num dests 12 simtime 26770 source 9


Pid 88423 Destinations are: 
48 20 40 4 52 21 44 45 60 3 9 6 num dests 12 simtime 26780 source 1


Pid 88448 Destinations are: 
48 24 31 53 10 25 20 7 57 22 59 19 num dests 12 simtime 26790 source 41


Pid 88541 Destinations are: 
46 5 6 7 63 37 31 41 8 44 24 28 num dests 12 simtime 26820 source 56


Pid 88607 Destinations are: 
11 63 54 41 14 5 12 37 10 29 43 26 num dests 12 simtime 26840 source 1


Pid 88629 Destinations are: 
63 29 59 2 56 14 55 38 60 34 39 62 num dests 12 simtime 26850 source 41


Pid 88655 Destinations are: 
1 11 3 61 56 58 18 46 22 42 14 29 num dests 12 simtime 26860 source 12


Pid 88720 Destinations are: 
34 15 60 59 33 55 6 39 8 18 58 9 num dests 12 simtime 26880 source 2


Pid 88738 Destinations are: 
3 33 21 34 27 50 11 59 30 38 23 28 num dests 12 simtime 26890 source 15


Pid 88769 Destinations are: 
3 33 21 34 27 50 12 59 30 38 23 28 num dests 12 simtime 26900 source 5


Pid 88807 Destinations are: 
8 6 60 56 55 45 16 9 33 49 5 3 num dests 12 simtime 26910 source 4


Pid 88843 Destinations are: 
34 50 43 10 36 54 1 26 61 45 42 47 num dests 12 simtime 26920 source 37


Pid 88888 Destinations are: 
42 28 16 32 6 12 29 57 54 52 47 33 num dests 12 simtime 26930 source 5


Pid 88924 Destinations are: 
58 23 4 31 13 61 5 28 30 1 40 34 num dests 12 simtime 26940 source 33


Pid 88954 Destinations are: 
28 5 39 22 38 8 9 46 11 17 49 21 num dests 12 simtime 26950 source 26


Pid 88982 Destinations are: 
3 5 51 8 53 17 48 38 35 7 27 46 num dests 12 simtime 26960 source 14


Pid 89054 Destinations are: 
7 53 1 20 55 33 30 8 60 52 34 58 num dests 12 simtime 26980 source 40
Class 0:
Remaining flits: 59165 68326 70940 70996 71050 71115 71121 71173 73999 74454 [...] (271 flits)
Measured flits: 71173 (1 flits)


Pid 89109 Destinations are: 
50 28 47 39 6 55 9 1 26 31 15 8 num dests 12 simtime 27000 source 37


Pid 89138 Destinations are: 
8 15 38 22 30 4 28 7 20 29 46 61 num dests 12 simtime 27010 source 32


Pid 89198 Destinations are: 
32 19 41 12 3 10 26 20 22 59 30 52 num dests 12 simtime 27030 source 58


Pid 89260 Destinations are: 
60 53 33 24 26 15 30 50 36 21 27 11 num dests 12 simtime 27050 source 19


Pid 89286 Destinations are: 
0 48 42 59 52 5 9 10 6 26 47 35 num dests 12 simtime 27060 source 34


Pid 89359 Destinations are: 
32 12 38 5 17 9 37 59 49 52 22 16 num dests 12 simtime 27080 source 44


Pid 89389 Destinations are: 
57 45 34 32 12 58 9 33 54 15 4 60 num dests 12 simtime 27090 source 10


Pid 89428 Destinations are: 
15 19 36 39 60 63 12 35 31 1 49 4 num dests 12 simtime 27100 source 51


Pid 89461 Destinations are: 
30 46 3 28 43 20 25 5 19 55 52 21 num dests 12 simtime 27110 source 9


Pid 89494 Destinations are: 
37 8 14 51 1 49 10 20 48 57 27 19 num dests 12 simtime 27120 source 54


Pid 89576 Destinations are: 
21 47 37 42 41 14 56 54 8 0 16 19 num dests 12 simtime 27150 source 18


Pid 89604 Destinations are: 
41 25 38 21 2 20 18 39 35 51 62 54 num dests 12 simtime 27160 source 44


Pid 89641 Destinations are: 
33 49 36 6 28 20 27 53 16 48 22 7 num dests 12 simtime 27170 source 41


Pid 89681 Destinations are: 
58 32 46 30 13 24 22 39 61 9 57 3 num dests 12 simtime 27180 source 42


Pid 89708 Destinations are: 
49 35 52 5 45 41 55 30 56 51 36 12 num dests 12 simtime 27190 source 13


Pid 89742 Destinations are: 
33 8 48 61 34 24 60 45 63 21 47 51 num dests 12 simtime 27200 source 26


Pid 89775 Destinations are: 
18 29 60 28 40 42 23 49 54 6 51 2 num dests 12 simtime 27210 source 19


Pid 89808 Destinations are: 
13 9 49 8 47 17 12 25 29 44 21 33 num dests 12 simtime 27220 source 31


Pid 89867 Destinations are: 
33 41 49 55 6 27 39 48 30 46 21 26 num dests 12 simtime 27240 source 10


Pid 89897 Destinations are: 
18 56 6 10 49 27 34 60 45 40 39 62 num dests 12 simtime 27250 source 55


Pid 89974 Destinations are: 
23 1 20 27 6 25 2 29 37 55 40 62 num dests 12 simtime 27280 source 19


Pid 90000 Destinations are: 
23 1 20 27 6 25 2 29 37 55 40 62 num dests 12 simtime 27290 source 9


Pid 90034 Destinations are: 
62 3 11 40 22 24 58 17 51 26 46 37 num dests 12 simtime 27300 source 28


Pid 90065 Destinations are: 
53 35 12 31 14 45 21 62 6 54 30 28 num dests 12 simtime 27310 source 25


Pid 90101 Destinations are: 
22 54 50 29 62 6 10 53 63 44 0 36 num dests 12 simtime 27320 source 17


Pid 90156 Destinations are: 
8 59 51 16 28 11 44 2 24 49 62 21 num dests 12 simtime 27340 source 42


Pid 90253 Destinations are: 
39 62 45 40 17 28 43 38 60 22 30 29 num dests 12 simtime 27370 source 51


Pid 90290 Destinations are: 
46 36 62 29 38 20 56 52 33 17 34 53 num dests 12 simtime 27380 source 24


Pid 90317 Destinations are: 
1 20 46 53 23 30 17 10 27 26 18 25 num dests 12 simtime 27390 source 45


Pid 90379 Destinations are: 
27 36 50 60 62 30 57 49 12 2 40 31 num dests 12 simtime 27410 source 35


Pid 90415 Destinations are: 
37 24 0 30 6 5 32 8 28 11 22 55 num dests 12 simtime 27420 source 14


Pid 90448 Destinations are: 
46 54 14 0 57 47 4 42 25 32 60 17 num dests 12 simtime 27430 source 53


Pid 90518 Destinations are: 
4 57 50 36 5 61 54 56 30 26 39 45 num dests 12 simtime 27450 source 43


Pid 90555 Destinations are: 
41 26 15 63 24 60 61 35 11 30 54 16 num dests 12 simtime 27460 source 57


Pid 90592 Destinations are: 
4 57 50 37 5 61 54 56 31 27 40 45 num dests 12 simtime 27470 source 23


Pid 90628 Destinations are: 
49 3 27 31 32 11 20 34 12 63 37 44 num dests 12 simtime 27480 source 61


Pid 90706 Destinations are: 
30 44 51 29 43 38 15 21 41 63 0 10 num dests 12 simtime 27500 source 22


Pid 90771 Destinations are: 
55 41 31 30 27 52 33 6 32 46 22 40 num dests 12 simtime 27520 source 10


Pid 90800 Destinations are: 
52 33 60 6 63 29 5 53 36 41 12 54 num dests 12 simtime 27530 source 46


Pid 90829 Destinations are: 
52 33 60 6 63 29 5 53 37 42 12 54 num dests 12 simtime 27540 source 36


Pid 90858 Destinations are: 
30 13 42 57 33 7 58 23 19 11 2 45 num dests 12 simtime 27550 source 40


Pid 90901 Destinations are: 
13 2 60 27 48 38 62 21 18 12 1 41 num dests 12 simtime 27560 source 25


Pid 90945 Destinations are: 
13 2 60 27 48 38 62 22 19 12 1 41 num dests 12 simtime 27570 source 15


Pid 90969 Destinations are: 
46 17 21 7 62 61 39 23 42 59 57 16 num dests 12 simtime 27580 source 11


Pid 91054 Destinations are: 
7 11 22 50 52 36 10 56 37 32 33 13 num dests 12 simtime 27610 source 41


Pid 91087 Destinations are: 
33 60 13 45 39 20 50 31 49 19 4 56 num dests 12 simtime 27620 source 32


Pid 91119 Destinations are: 
23 52 46 58 29 10 1 6 59 7 22 24 num dests 12 simtime 27630 source 39


Pid 91144 Destinations are: 
55 45 47 11 3 30 59 19 40 38 36 35 num dests 12 simtime 27640 source 10


Pid 91177 Destinations are: 
7 32 30 13 41 18 34 38 58 23 33 22 num dests 12 simtime 27650 source 9


Pid 91218 Destinations are: 
20 63 51 47 44 49 28 11 59 43 55 22 num dests 12 simtime 27660 source 46


Pid 91252 Destinations are: 
46 9 40 57 61 62 56 42 16 44 2 48 num dests 12 simtime 27670 source 49


Pid 91318 Destinations are: 
9 49 3 15 47 45 18 37 34 53 7 59 num dests 12 simtime 27690 source 22


Pid 91345 Destinations are: 
6 23 33 4 7 15 5 22 24 30 36 51 num dests 12 simtime 27700 source 37


Pid 91377 Destinations are: 
15 60 59 0 29 34 49 5 1 18 26 44 num dests 12 simtime 27710 source 37


Pid 91419 Destinations are: 
14 19 50 36 11 23 60 13 41 54 21 10 num dests 12 simtime 27720 source 0


Pid 91472 Destinations are: 
23 52 3 11 24 31 42 16 45 61 54 36 num dests 12 simtime 27740 source 25


Pid 91531 Destinations are: 
49 63 10 22 45 3 30 34 11 18 58 38 num dests 12 simtime 27760 source 17


Pid 91558 Destinations are: 
21 51 3 45 62 43 36 46 52 35 53 22 num dests 12 simtime 27770 source 28


Pid 91592 Destinations are: 
51 24 14 47 11 54 9 55 43 35 5 25 num dests 12 simtime 27780 source 4


Pid 91636 Destinations are: 
42 56 10 1 37 57 9 21 3 36 8 23 num dests 12 simtime 27790 source 43


Pid 91741 Destinations are: 
21 39 57 30 38 41 16 1 15 48 58 40 num dests 12 simtime 27810 source 45


Pid 91787 Destinations are: 
1 38 3 11 49 41 50 23 15 29 43 18 num dests 12 simtime 27820 source 30
Draining remaining packets ...
Time taken is 28162 cycles
====== Overall Traffic Statistics ======
====== Traffic class 0 ======
Packet latency average = 229.421 (1 samples)
	minimum = 2 (1 samples)
	maximum = 17980 (1 samples)
Network latency average = 107.683 (1 samples)
	minimum = 2 (1 samples)
	maximum = 9281 (1 samples)
Flit latency average = 111.508 (1 samples)
	minimum = 2 (1 samples)
	maximum = 10321 (1 samples)
Fragmentation average = 0 (1 samples)
	minimum = 0 (1 samples)
	maximum = 0 (1 samples)
Injected packet rate average = 0.0240357 (1 samples)
	minimum = 0.0125714 (1 samples)
	maximum = 0.0295714 (1 samples)
Accepted packet rate average = 0.0378237 (1 samples)
	minimum = 0.0334286 (1 samples)
	maximum = 0.043 (1 samples)
Injected flit rate average = 0.0240357 (1 samples)
	minimum = 0.0125714 (1 samples)
	maximum = 0.0295714 (1 samples)
Accepted flit rate average = 0.0378237 (1 samples)
	minimum = 0.0334286 (1 samples)
	maximum = 0.043 (1 samples)
Injected packet size average = 1 (1 samples)
Accepted packet size average = 1 (1 samples)
Hops average = 4.35429 (1 samples)
Total run time 3.48664

Hub Condition Statistics per hub
         C0       C1       C2       C3       C4       C5       C6       C7      Sum 
H0      178        0        0    20601       21        0        0     7168    27968
H1     1525        0        0    18863      123        0        0     6674    27185
H2      559        0        0    20212       99        0        0     7006    27876
H3     2220        0        0    17982      145        0        0     6440    26787

 Packet wait time at Router
      Time     Count       Avg
         0      3132         0
         0      2860         0
         0      2994         0
         0      2718         0

Packet wait time at Hub including token delay
      Time     Count       Avg
    108300      3584        30
     90491      3337        27
    106485      3503        30
     78809      3220        24
total count 42342 mcastcount 2217
Wired  18766 Wireless count 7838
Average last destination arrival time for multicast flits : 346.61
Average packet latency for multicast flits : 53.4763
Average hops for multicast flits : 39.8705
